<?xml version='1.0' encoding='UTF-8'?>
<additional>
  <laneAreaDetector endPos="-1" file="output_detectors.out.xml" freq="10" id="0" lane="-136751135#4_0" length="40"/>
  <laneAreaDetector endPos="-1" file="output_detectors.out.xml" freq="10" id="1" lane="-136751135#4_1" length="40"/>
  <laneAreaDetector endPos="-1" file="output_detectors.out.xml" freq="10" id="2" lane="-161689967#0_0" length="40"/>
  <laneAreaDetector endPos="-1" file="output_detectors.out.xml" freq="10" id="3" lane="-161689967#2_0" length="40"/>
  <laneAreaDetector endPos="-1" file="output_detectors.out.xml" freq="10" id="4" lane="-161822265_0" length="40"/>
  <laneAreaDetector endPos="-1" file="output_detectors.out.xml" freq="10" id="5" lane="-172996350#0_0" length="40"/>
  <laneAreaDetector endPos="-1" file="output_detectors.out.xml" freq="10" id="6" lane="-172996350#0_1" length="40"/>
  <laneAreaDetector endPos="-1" file="output_detectors.out.xml" freq="10" id="7" lane="-172996350#1_0" length="40"/>
  <laneAreaDetector endPos="-1" file="output_detectors.out.xml" freq="10" id="8" lane="-172996350#1_1" length="40"/>
  <laneAreaDetector endPos="-1" file="output_detectors.out.xml" freq="10" id="9" lane="-186076540_0" length="40"/>
  <laneAreaDetector endPos="-1" file="output_detectors.out.xml" freq="10" id="10" lane="-186076540_1" length="40"/>
  <laneAreaDetector endPos="-1" file="output_detectors.out.xml" freq="10" id="11" lane="-186076540_2" length="40"/>
  <laneAreaDetector endPos="-1" file="output_detectors.out.xml" freq="10" id="12" lane="-234659538#0_0" length="40"/>
  <laneAreaDetector endPos="-1" file="output_detectors.out.xml" freq="10" id="13" lane="-234659538#1_0" length="40"/>
  <laneAreaDetector endPos="-1" file="output_detectors.out.xml" freq="10" id="14" lane="-237022761#12_0" length="40"/>
  <laneAreaDetector endPos="-1" file="output_detectors.out.xml" freq="10" id="15" lane="-237022761#12_1" length="40"/>
  <laneAreaDetector endPos="-1" file="output_detectors.out.xml" freq="10" id="16" lane="-237022761#9_0" length="40"/>
  <laneAreaDetector endPos="-1" file="output_detectors.out.xml" freq="10" id="17" lane="-237022761#9_1" length="40"/>
  <laneAreaDetector endPos="-1" file="output_detectors.out.xml" freq="10" id="18" lane="-381482564_0" length="40"/>
  <laneAreaDetector endPos="-1" file="output_detectors.out.xml" freq="10" id="19" lane="-381482564_1" length="40"/>
  <laneAreaDetector endPos="-1" file="output_detectors.out.xml" freq="10" id="20" lane="-382439720_0" length="40"/>
  <laneAreaDetector endPos="-1" file="output_detectors.out.xml" freq="10" id="21" lane="-382439720_1" length="40"/>
  <laneAreaDetector endPos="-1" file="output_detectors.out.xml" freq="10" id="22" lane="-382439720_2" length="40"/>
  <laneAreaDetector endPos="-1" file="output_detectors.out.xml" freq="10" id="23" lane="-382439721#1_0" length="40"/>
  <laneAreaDetector endPos="-1" file="output_detectors.out.xml" freq="10" id="24" lane="-382459572_0" length="40"/>
  <laneAreaDetector endPos="-1" file="output_detectors.out.xml" freq="10" id="25" lane="-382459572_1" length="40"/>
  <laneAreaDetector endPos="-1" file="output_detectors.out.xml" freq="10" id="26" lane="-382460879#1_0" length="40"/>
  <laneAreaDetector endPos="-1" file="output_detectors.out.xml" freq="10" id="27" lane="-382460879#1_1" length="40"/>
  <laneAreaDetector endPos="-1" file="output_detectors.out.xml" freq="10" id="28" lane="-382496106_0" length="40"/>
  <laneAreaDetector endPos="-1" file="output_detectors.out.xml" freq="10" id="29" lane="-382496106_1" length="40"/>
  <laneAreaDetector endPos="-1" file="output_detectors.out.xml" freq="10" id="30" lane="-398733935_0" length="40"/>
  <laneAreaDetector endPos="-1" file="output_detectors.out.xml" freq="10" id="31" lane="-398733935_1" length="40"/>
  <laneAreaDetector endPos="-1" file="output_detectors.out.xml" freq="10" id="32" lane="-398733936_0" length="40"/>
  <laneAreaDetector endPos="-1" file="output_detectors.out.xml" freq="10" id="33" lane="-398733936_1" length="40"/>
  <laneAreaDetector endPos="-1" file="output_detectors.out.xml" freq="10" id="34" lane="-398733936_2" length="40"/>
  <laneAreaDetector endPos="-1" file="output_detectors.out.xml" freq="10" id="35" lane="-398733939_0" length="40"/>
  <laneAreaDetector endPos="-1" file="output_detectors.out.xml" freq="10" id="36" lane="-398733939_1" length="40"/>
  <laneAreaDetector endPos="-1" file="output_detectors.out.xml" freq="10" id="37" lane="-398733941#1_0" length="40"/>
  <laneAreaDetector endPos="-1" file="output_detectors.out.xml" freq="10" id="38" lane="-398733941#1_1" length="40"/>
  <laneAreaDetector endPos="-1" file="output_detectors.out.xml" freq="10" id="39" lane="-398733942_0" length="40"/>
  <laneAreaDetector endPos="-1" file="output_detectors.out.xml" freq="10" id="40" lane="-398733942_1" length="40"/>
  <laneAreaDetector endPos="-1" file="output_detectors.out.xml" freq="10" id="41" lane="-398733944_0" length="40"/>
  <laneAreaDetector endPos="-1" file="output_detectors.out.xml" freq="10" id="42" lane="-398733944_1" length="40"/>
  <laneAreaDetector endPos="-1" file="output_detectors.out.xml" freq="10" id="43" lane="-398735929_0" length="40"/>
  <laneAreaDetector endPos="-1" file="output_detectors.out.xml" freq="10" id="44" lane="-398735929_1" length="40"/>
  <laneAreaDetector endPos="-1" file="output_detectors.out.xml" freq="10" id="45" lane="-398735933_0" length="40"/>
  <laneAreaDetector endPos="-1" file="output_detectors.out.xml" freq="10" id="46" lane="-398735933_1" length="40"/>
  <laneAreaDetector endPos="-1" file="output_detectors.out.xml" freq="10" id="47" lane="-398735937#1_0" length="40"/>
  <laneAreaDetector endPos="-1" file="output_detectors.out.xml" freq="10" id="48" lane="-398735937#1_1" length="40"/>
  <laneAreaDetector endPos="-1" file="output_detectors.out.xml" freq="10" id="49" lane="-398735938#1_0" length="40"/>
  <laneAreaDetector endPos="-1" file="output_detectors.out.xml" freq="10" id="50" lane="-398735938#1_1" length="40"/>
  <laneAreaDetector endPos="-1" file="output_detectors.out.xml" freq="10" id="51" lane="-398735938#1_2" length="40"/>
  <laneAreaDetector endPos="-1" file="output_detectors.out.xml" freq="10" id="52" lane="-398735939#1_0" length="40"/>
  <laneAreaDetector endPos="-1" file="output_detectors.out.xml" freq="10" id="53" lane="-398735939#1_1" length="40"/>
  <laneAreaDetector endPos="-1" file="output_detectors.out.xml" freq="10" id="54" lane="-398735940#3_0" length="40"/>
  <laneAreaDetector endPos="-1" file="output_detectors.out.xml" freq="10" id="55" lane="-398735940#3_1" length="40"/>
  <laneAreaDetector endPos="-1" file="output_detectors.out.xml" freq="10" id="56" lane="-398735943_0" length="40"/>
  <laneAreaDetector endPos="-1" file="output_detectors.out.xml" freq="10" id="57" lane="-398735943_1" length="40"/>
  <laneAreaDetector endPos="-1" file="output_detectors.out.xml" freq="10" id="58" lane="-398735944_0" length="40"/>
  <laneAreaDetector endPos="-1" file="output_detectors.out.xml" freq="10" id="59" lane="-398735944_1" length="40"/>
  <laneAreaDetector endPos="-1" file="output_detectors.out.xml" freq="10" id="60" lane="-398735945_0" length="40"/>
  <laneAreaDetector endPos="-1" file="output_detectors.out.xml" freq="10" id="61" lane="-398735945_1" length="40"/>
  <laneAreaDetector endPos="-1" file="output_detectors.out.xml" freq="10" id="62" lane="-398735947#1_0" length="40"/>
  <laneAreaDetector endPos="-1" file="output_detectors.out.xml" freq="10" id="63" lane="-398735947#1_1" length="40"/>
  <laneAreaDetector endPos="-1" file="output_detectors.out.xml" freq="10" id="64" lane="-398735948#1_0" length="40"/>
  <laneAreaDetector endPos="-1" file="output_detectors.out.xml" freq="10" id="65" lane="-398735948#1_1" length="40"/>
  <laneAreaDetector endPos="-1" file="output_detectors.out.xml" freq="10" id="66" lane="-398735948#1_2" length="40"/>
  <laneAreaDetector endPos="-1" file="output_detectors.out.xml" freq="10" id="67" lane="-398735949#1_0" length="40"/>
  <laneAreaDetector endPos="-1" file="output_detectors.out.xml" freq="10" id="68" lane="-398735949#1_1" length="40"/>
  <laneAreaDetector endPos="-1" file="output_detectors.out.xml" freq="10" id="69" lane="-398735952#2_0" length="40"/>
  <laneAreaDetector endPos="-1" file="output_detectors.out.xml" freq="10" id="70" lane="-398735952#2_1" length="40"/>
  <laneAreaDetector endPos="-1" file="output_detectors.out.xml" freq="10" id="71" lane="-398740643_0" length="40"/>
  <laneAreaDetector endPos="-1" file="output_detectors.out.xml" freq="10" id="72" lane="-398740643_1" length="40"/>
  <laneAreaDetector endPos="-1" file="output_detectors.out.xml" freq="10" id="73" lane="-398812541_0" length="40"/>
  <laneAreaDetector endPos="-1" file="output_detectors.out.xml" freq="10" id="74" lane="-398812541_1" length="40"/>
  <laneAreaDetector endPos="-1" file="output_detectors.out.xml" freq="10" id="75" lane="-398814235_0" length="40"/>
  <laneAreaDetector endPos="-1" file="output_detectors.out.xml" freq="10" id="76" lane="-398814235_1" length="40"/>
  <laneAreaDetector endPos="-1" file="output_detectors.out.xml" freq="10" id="77" lane="-398814238_0" length="40"/>
  <laneAreaDetector endPos="-1" file="output_detectors.out.xml" freq="10" id="78" lane="-398814238_1" length="40"/>
  <laneAreaDetector endPos="-1" file="output_detectors.out.xml" freq="10" id="79" lane="-398814238_2" length="40"/>
  <laneAreaDetector endPos="-1" file="output_detectors.out.xml" freq="10" id="80" lane="-399238813#1_0" length="40"/>
  <laneAreaDetector endPos="-1" file="output_detectors.out.xml" freq="10" id="81" lane="-399238813#1_1" length="40"/>
  <laneAreaDetector endPos="-1" file="output_detectors.out.xml" freq="10" id="82" lane="-399238814#1_0" length="40"/>
  <laneAreaDetector endPos="-1" file="output_detectors.out.xml" freq="10" id="83" lane="-399238814#1_1" length="40"/>
  <laneAreaDetector endPos="-1" file="output_detectors.out.xml" freq="10" id="84" lane="-399238814#1_2" length="40"/>
  <laneAreaDetector endPos="-1" file="output_detectors.out.xml" freq="10" id="85" lane="-402114963_0" length="40"/>
  <laneAreaDetector endPos="-1" file="output_detectors.out.xml" freq="10" id="86" lane="-402114963_1" length="40"/>
  <laneAreaDetector endPos="-1" file="output_detectors.out.xml" freq="10" id="87" lane="-47805886#2_0" length="40"/>
  <laneAreaDetector endPos="-1" file="output_detectors.out.xml" freq="10" id="88" lane="-47805886#2_1" length="40"/>
  <laneAreaDetector endPos="-1" file="output_detectors.out.xml" freq="10" id="89" lane="-47805886#7_0" length="40"/>
  <laneAreaDetector endPos="-1" file="output_detectors.out.xml" freq="10" id="90" lane="-47805886#7_1" length="40"/>
  <laneAreaDetector endPos="-1" file="output_detectors.out.xml" freq="10" id="91" lane="-521842795_0" length="40"/>
  <laneAreaDetector endPos="-1" file="output_detectors.out.xml" freq="10" id="92" lane="-521842795_1" length="40"/>
  <laneAreaDetector endPos="-1" file="output_detectors.out.xml" freq="10" id="93" lane="-579163503#1_0" length="40"/>
  <laneAreaDetector endPos="-1" file="output_detectors.out.xml" freq="10" id="94" lane="-579163503#1_1" length="40"/>
  <laneAreaDetector endPos="-1" file="output_detectors.out.xml" freq="10" id="95" lane="136751135#0_0" length="40"/>
  <laneAreaDetector endPos="-1" file="output_detectors.out.xml" freq="10" id="96" lane="136751135#0_1" length="40"/>
  <laneAreaDetector endPos="-1" file="output_detectors.out.xml" freq="10" id="97" lane="161687304#0_0" length="40"/>
  <laneAreaDetector endPos="-1" file="output_detectors.out.xml" freq="10" id="98" lane="161687304#0_1" length="40"/>
  <laneAreaDetector endPos="-1" file="output_detectors.out.xml" freq="10" id="99" lane="161687304#0_2" length="40"/>
  <laneAreaDetector endPos="-1" file="output_detectors.out.xml" freq="10" id="100" lane="161688464#0_0" length="40"/>
  <laneAreaDetector endPos="-1" file="output_detectors.out.xml" freq="10" id="101" lane="161688464#0_1" length="40"/>
  <laneAreaDetector endPos="-1" file="output_detectors.out.xml" freq="10" id="102" lane="161688464#0_2" length="40"/>
  <laneAreaDetector endPos="-1" file="output_detectors.out.xml" freq="10" id="103" lane="161688464#0_3" length="40"/>
  <laneAreaDetector endPos="-1" file="output_detectors.out.xml" freq="10" id="104" lane="161688464#17_0" length="40"/>
  <laneAreaDetector endPos="-1" file="output_detectors.out.xml" freq="10" id="105" lane="161688464#17_1" length="40"/>
  <laneAreaDetector endPos="-1" file="output_detectors.out.xml" freq="10" id="106" lane="161688464#17_2" length="40"/>
  <laneAreaDetector endPos="-1" file="output_detectors.out.xml" freq="10" id="107" lane="161688464#17_3" length="40"/>
  <laneAreaDetector endPos="-1" file="output_detectors.out.xml" freq="10" id="108" lane="161688464#3_0" length="40"/>
  <laneAreaDetector endPos="-1" file="output_detectors.out.xml" freq="10" id="109" lane="161688464#3_1" length="40"/>
  <laneAreaDetector endPos="-1" file="output_detectors.out.xml" freq="10" id="110" lane="161688464#3_2" length="40"/>
  <laneAreaDetector endPos="-1" file="output_detectors.out.xml" freq="10" id="111" lane="161688464#3_3" length="40"/>
  <laneAreaDetector endPos="-1" file="output_detectors.out.xml" freq="10" id="112" lane="161688464#8_0" length="40"/>
  <laneAreaDetector endPos="-1" file="output_detectors.out.xml" freq="10" id="113" lane="161688464#8_1" length="40"/>
  <laneAreaDetector endPos="-1" file="output_detectors.out.xml" freq="10" id="114" lane="161688464#8_2" length="40"/>
  <laneAreaDetector endPos="-1" file="output_detectors.out.xml" freq="10" id="115" lane="161688464#8_3" length="40"/>
  <laneAreaDetector endPos="-1" file="output_detectors.out.xml" freq="10" id="116" lane="161688766_0" length="40"/>
  <laneAreaDetector endPos="-1" file="output_detectors.out.xml" freq="10" id="117" lane="161688766_1" length="40"/>
  <laneAreaDetector endPos="-1" file="output_detectors.out.xml" freq="10" id="118" lane="161688766_2" length="40"/>
  <laneAreaDetector endPos="-1" file="output_detectors.out.xml" freq="10" id="119" lane="161688766_3" length="40"/>
  <laneAreaDetector endPos="-1" file="output_detectors.out.xml" freq="10" id="120" lane="161688767#0_0" length="40"/>
  <laneAreaDetector endPos="-1" file="output_detectors.out.xml" freq="10" id="121" lane="161688767#0_1" length="40"/>
  <laneAreaDetector endPos="-1" file="output_detectors.out.xml" freq="10" id="122" lane="161688767#0_2" length="40"/>
  <laneAreaDetector endPos="-1" file="output_detectors.out.xml" freq="10" id="123" lane="161688767#0_3" length="40"/>
  <laneAreaDetector endPos="-1" file="output_detectors.out.xml" freq="10" id="124" lane="161688767#2_0" length="40"/>
  <laneAreaDetector endPos="-1" file="output_detectors.out.xml" freq="10" id="125" lane="161688767#2_1" length="40"/>
  <laneAreaDetector endPos="-1" file="output_detectors.out.xml" freq="10" id="126" lane="161688767#2_2" length="40"/>
  <laneAreaDetector endPos="-1" file="output_detectors.out.xml" freq="10" id="127" lane="161688767#2_3" length="40"/>
  <laneAreaDetector endPos="-1" file="output_detectors.out.xml" freq="10" id="128" lane="161689967#1_0" length="40"/>
  <laneAreaDetector endPos="-1" file="output_detectors.out.xml" freq="10" id="129" lane="161822265_0" length="40"/>
  <laneAreaDetector endPos="-1" file="output_detectors.out.xml" freq="10" id="130" lane="161822265_1" length="40"/>
  <laneAreaDetector endPos="-1" file="output_detectors.out.xml" freq="10" id="131" lane="172996350#0_0" length="40"/>
  <laneAreaDetector endPos="-1" file="output_detectors.out.xml" freq="10" id="132" lane="172996350#0_1" length="40"/>
  <laneAreaDetector endPos="-1" file="output_detectors.out.xml" freq="10" id="133" lane="172996350#1_0" length="40"/>
  <laneAreaDetector endPos="-1" file="output_detectors.out.xml" freq="10" id="134" lane="172996350#1_1" length="40"/>
  <laneAreaDetector endPos="-1" file="output_detectors.out.xml" freq="10" id="135" lane="185741202#0_0" length="40"/>
  <laneAreaDetector endPos="-1" file="output_detectors.out.xml" freq="10" id="136" lane="185741202#0_1" length="40"/>
  <laneAreaDetector endPos="-1" file="output_detectors.out.xml" freq="10" id="137" lane="185741202#0_2" length="40"/>
  <laneAreaDetector endPos="-1" file="output_detectors.out.xml" freq="10" id="138" lane="186076540_0" length="40"/>
  <laneAreaDetector endPos="-1" file="output_detectors.out.xml" freq="10" id="139" lane="186076540_1" length="40"/>
  <laneAreaDetector endPos="-1" file="output_detectors.out.xml" freq="10" id="140" lane="206354180#0_0" length="40"/>
  <laneAreaDetector endPos="-1" file="output_detectors.out.xml" freq="10" id="141" lane="206354180#0_1" length="40"/>
  <laneAreaDetector endPos="-1" file="output_detectors.out.xml" freq="10" id="142" lane="206354180#0_2" length="40"/>
  <laneAreaDetector endPos="-1" file="output_detectors.out.xml" freq="10" id="143" lane="206354180#0_3" length="40"/>
  <laneAreaDetector endPos="-1" file="output_detectors.out.xml" freq="10" id="144" lane="206354180#1_0" length="40"/>
  <laneAreaDetector endPos="-1" file="output_detectors.out.xml" freq="10" id="145" lane="206354180#1_1" length="40"/>
  <laneAreaDetector endPos="-1" file="output_detectors.out.xml" freq="10" id="146" lane="206354180#1_2" length="40"/>
  <laneAreaDetector endPos="-1" file="output_detectors.out.xml" freq="10" id="147" lane="206354180#1_3" length="40"/>
  <laneAreaDetector endPos="-1" file="output_detectors.out.xml" freq="10" id="148" lane="234659538#0_0" length="40"/>
  <laneAreaDetector endPos="-1" file="output_detectors.out.xml" freq="10" id="149" lane="234659538#1_0" length="40"/>
  <laneAreaDetector endPos="-1" file="output_detectors.out.xml" freq="10" id="150" lane="237022761#0_0" length="40"/>
  <laneAreaDetector endPos="-1" file="output_detectors.out.xml" freq="10" id="151" lane="237022761#0_1" length="40"/>
  <laneAreaDetector endPos="-1" file="output_detectors.out.xml" freq="10" id="152" lane="237022761#10_0" length="40"/>
  <laneAreaDetector endPos="-1" file="output_detectors.out.xml" freq="10" id="153" lane="237022761#10_1" length="40"/>
  <laneAreaDetector endPos="-1" file="output_detectors.out.xml" freq="10" id="154" lane="306487258#0_0" length="40"/>
  <laneAreaDetector endPos="-1" file="output_detectors.out.xml" freq="10" id="155" lane="306487258#0_1" length="40"/>
  <laneAreaDetector endPos="-1" file="output_detectors.out.xml" freq="10" id="156" lane="306487258#0_2" length="40"/>
  <laneAreaDetector endPos="-1" file="output_detectors.out.xml" freq="10" id="157" lane="306487258#0_3" length="40"/>
  <laneAreaDetector endPos="-1" file="output_detectors.out.xml" freq="10" id="158" lane="356674388#2_0" length="40"/>
  <laneAreaDetector endPos="-1" file="output_detectors.out.xml" freq="10" id="159" lane="356674388#2_1" length="40"/>
  <laneAreaDetector endPos="-1" file="output_detectors.out.xml" freq="10" id="160" lane="356674388#2_2" length="40"/>
  <laneAreaDetector endPos="-1" file="output_detectors.out.xml" freq="10" id="161" lane="381482564_0" length="40"/>
  <laneAreaDetector endPos="-1" file="output_detectors.out.xml" freq="10" id="162" lane="381482564_1" length="40"/>
  <laneAreaDetector endPos="-1" file="output_detectors.out.xml" freq="10" id="163" lane="382439720_0" length="40"/>
  <laneAreaDetector endPos="-1" file="output_detectors.out.xml" freq="10" id="164" lane="382439720_1" length="40"/>
  <laneAreaDetector endPos="-1" file="output_detectors.out.xml" freq="10" id="165" lane="382439721#0_0" length="40"/>
  <laneAreaDetector endPos="-1" file="output_detectors.out.xml" freq="10" id="166" lane="382459572_0" length="40"/>
  <laneAreaDetector endPos="-1" file="output_detectors.out.xml" freq="10" id="167" lane="382459572_1" length="40"/>
  <laneAreaDetector endPos="-1" file="output_detectors.out.xml" freq="10" id="168" lane="382460880#0_0" length="40"/>
  <laneAreaDetector endPos="-1" file="output_detectors.out.xml" freq="10" id="169" lane="382460880#0_1" length="40"/>
  <laneAreaDetector endPos="-1" file="output_detectors.out.xml" freq="10" id="170" lane="398733934_0" length="40"/>
  <laneAreaDetector endPos="-1" file="output_detectors.out.xml" freq="10" id="171" lane="398733934_1" length="40"/>
  <laneAreaDetector endPos="-1" file="output_detectors.out.xml" freq="10" id="172" lane="398733934_2" length="40"/>
  <laneAreaDetector endPos="-1" file="output_detectors.out.xml" freq="10" id="173" lane="398733936_0" length="40"/>
  <laneAreaDetector endPos="-1" file="output_detectors.out.xml" freq="10" id="174" lane="398733936_1" length="40"/>
  <laneAreaDetector endPos="-1" file="output_detectors.out.xml" freq="10" id="175" lane="398733939_0" length="40"/>
  <laneAreaDetector endPos="-1" file="output_detectors.out.xml" freq="10" id="176" lane="398733939_1" length="40"/>
  <laneAreaDetector endPos="-1" file="output_detectors.out.xml" freq="10" id="177" lane="398733939_2" length="40"/>
  <laneAreaDetector endPos="-1" file="output_detectors.out.xml" freq="10" id="178" lane="398733941#0_0" length="40"/>
  <laneAreaDetector endPos="-1" file="output_detectors.out.xml" freq="10" id="179" lane="398733941#0_1" length="40"/>
  <laneAreaDetector endPos="-1" file="output_detectors.out.xml" freq="10" id="180" lane="398733941#0_2" length="40"/>
  <laneAreaDetector endPos="-1" file="output_detectors.out.xml" freq="10" id="181" lane="398733942_0" length="40"/>
  <laneAreaDetector endPos="-1" file="output_detectors.out.xml" freq="10" id="182" lane="398733942_1" length="40"/>
  <laneAreaDetector endPos="-1" file="output_detectors.out.xml" freq="10" id="183" lane="398733944_0" length="40"/>
  <laneAreaDetector endPos="-1" file="output_detectors.out.xml" freq="10" id="184" lane="398733944_1" length="40"/>
  <laneAreaDetector endPos="-1" file="output_detectors.out.xml" freq="10" id="185" lane="398735929_0" length="40"/>
  <laneAreaDetector endPos="-1" file="output_detectors.out.xml" freq="10" id="186" lane="398735929_1" length="40"/>
  <laneAreaDetector endPos="-1" file="output_detectors.out.xml" freq="10" id="187" lane="398735933_0" length="40"/>
  <laneAreaDetector endPos="-1" file="output_detectors.out.xml" freq="10" id="188" lane="398735933_1" length="40"/>
  <laneAreaDetector endPos="-1" file="output_detectors.out.xml" freq="10" id="189" lane="398735933_2" length="40"/>
  <laneAreaDetector endPos="-1" file="output_detectors.out.xml" freq="10" id="190" lane="398735936_0" length="40"/>
  <laneAreaDetector endPos="-1" file="output_detectors.out.xml" freq="10" id="191" lane="398735936_1" length="40"/>
  <laneAreaDetector endPos="-1" file="output_detectors.out.xml" freq="10" id="192" lane="398735937#0_0" length="40"/>
  <laneAreaDetector endPos="-1" file="output_detectors.out.xml" freq="10" id="193" lane="398735937#0_1" length="40"/>
  <laneAreaDetector endPos="-1" file="output_detectors.out.xml" freq="10" id="194" lane="398735938#0_0" length="40"/>
  <laneAreaDetector endPos="-1" file="output_detectors.out.xml" freq="10" id="195" lane="398735938#0_1" length="40"/>
  <laneAreaDetector endPos="-1" file="output_detectors.out.xml" freq="10" id="196" lane="398735939#0_0" length="40"/>
  <laneAreaDetector endPos="-1" file="output_detectors.out.xml" freq="10" id="197" lane="398735939#0_1" length="40"/>
  <laneAreaDetector endPos="-1" file="output_detectors.out.xml" freq="10" id="198" lane="398735939#0_2" length="40"/>
  <laneAreaDetector endPos="-1" file="output_detectors.out.xml" freq="10" id="199" lane="398735940#0_0" length="40"/>
  <laneAreaDetector endPos="-1" file="output_detectors.out.xml" freq="10" id="200" lane="398735940#0_1" length="40"/>
  <laneAreaDetector endPos="-1" file="output_detectors.out.xml" freq="10" id="201" lane="398735943_0" length="40"/>
  <laneAreaDetector endPos="-1" file="output_detectors.out.xml" freq="10" id="202" lane="398735943_1" length="40"/>
  <laneAreaDetector endPos="-1" file="output_detectors.out.xml" freq="10" id="203" lane="398735944_0" length="40"/>
  <laneAreaDetector endPos="-1" file="output_detectors.out.xml" freq="10" id="204" lane="398735944_1" length="40"/>
  <laneAreaDetector endPos="-1" file="output_detectors.out.xml" freq="10" id="205" lane="398735944_2" length="40"/>
  <laneAreaDetector endPos="-1" file="output_detectors.out.xml" freq="10" id="206" lane="398735945_0" length="40"/>
  <laneAreaDetector endPos="-1" file="output_detectors.out.xml" freq="10" id="207" lane="398735945_1" length="40"/>
  <laneAreaDetector endPos="-1" file="output_detectors.out.xml" freq="10" id="208" lane="398735947#0_0" length="40"/>
  <laneAreaDetector endPos="-1" file="output_detectors.out.xml" freq="10" id="209" lane="398735947#0_1" length="40"/>
  <laneAreaDetector endPos="-1" file="output_detectors.out.xml" freq="10" id="210" lane="398735947#0_2" length="40"/>
  <laneAreaDetector endPos="-1" file="output_detectors.out.xml" freq="10" id="211" lane="398735948#0_0" length="40"/>
  <laneAreaDetector endPos="-1" file="output_detectors.out.xml" freq="10" id="212" lane="398735948#0_1" length="40"/>
  <laneAreaDetector endPos="-1" file="output_detectors.out.xml" freq="10" id="213" lane="398735949#0_0" length="40"/>
  <laneAreaDetector endPos="-1" file="output_detectors.out.xml" freq="10" id="214" lane="398735949#0_1" length="40"/>
  <laneAreaDetector endPos="-1" file="output_detectors.out.xml" freq="10" id="215" lane="398735949#0_2" length="40"/>
  <laneAreaDetector endPos="-1" file="output_detectors.out.xml" freq="10" id="216" lane="398735952#0_0" length="40"/>
  <laneAreaDetector endPos="-1" file="output_detectors.out.xml" freq="10" id="217" lane="398735952#0_1" length="40"/>
  <laneAreaDetector endPos="-1" file="output_detectors.out.xml" freq="10" id="218" lane="398740643_0" length="40"/>
  <laneAreaDetector endPos="-1" file="output_detectors.out.xml" freq="10" id="219" lane="398812533_0" length="40"/>
  <laneAreaDetector endPos="-1" file="output_detectors.out.xml" freq="10" id="220" lane="398812533_1" length="40"/>
  <laneAreaDetector endPos="-1" file="output_detectors.out.xml" freq="10" id="221" lane="398812533_2" length="40"/>
  <laneAreaDetector endPos="-1" file="output_detectors.out.xml" freq="10" id="222" lane="398812541_0" length="40"/>
  <laneAreaDetector endPos="-1" file="output_detectors.out.xml" freq="10" id="223" lane="398812541_1" length="40"/>
  <laneAreaDetector endPos="-1" file="output_detectors.out.xml" freq="10" id="224" lane="398812542_0" length="40"/>
  <laneAreaDetector endPos="-1" file="output_detectors.out.xml" freq="10" id="225" lane="398812542_1" length="40"/>
  <laneAreaDetector endPos="-1" file="output_detectors.out.xml" freq="10" id="226" lane="398812542_2" length="40"/>
  <laneAreaDetector endPos="-1" file="output_detectors.out.xml" freq="10" id="227" lane="398814235_0" length="40"/>
  <laneAreaDetector endPos="-1" file="output_detectors.out.xml" freq="10" id="228" lane="398814235_1" length="40"/>
  <laneAreaDetector endPos="-1" file="output_detectors.out.xml" freq="10" id="229" lane="398814238_0" length="40"/>
  <laneAreaDetector endPos="-1" file="output_detectors.out.xml" freq="10" id="230" lane="398814238_1" length="40"/>
  <laneAreaDetector endPos="-1" file="output_detectors.out.xml" freq="10" id="231" lane="398814284#0_0" length="40"/>
  <laneAreaDetector endPos="-1" file="output_detectors.out.xml" freq="10" id="232" lane="398814284#0_1" length="40"/>
  <laneAreaDetector endPos="-1" file="output_detectors.out.xml" freq="10" id="233" lane="398814284#0_2" length="40"/>
  <laneAreaDetector endPos="-1" file="output_detectors.out.xml" freq="10" id="234" lane="398814284#0_3" length="40"/>
  <laneAreaDetector endPos="-1" file="output_detectors.out.xml" freq="10" id="235" lane="399238813#0_0" length="40"/>
  <laneAreaDetector endPos="-1" file="output_detectors.out.xml" freq="10" id="236" lane="399238813#0_1" length="40"/>
  <laneAreaDetector endPos="-1" file="output_detectors.out.xml" freq="10" id="237" lane="399238813#0_2" length="40"/>
  <laneAreaDetector endPos="-1" file="output_detectors.out.xml" freq="10" id="238" lane="399238814#0_0" length="40"/>
  <laneAreaDetector endPos="-1" file="output_detectors.out.xml" freq="10" id="239" lane="399238814#0_1" length="40"/>
  <laneAreaDetector endPos="-1" file="output_detectors.out.xml" freq="10" id="240" lane="399270698#0_0" length="40"/>
  <laneAreaDetector endPos="-1" file="output_detectors.out.xml" freq="10" id="241" lane="399270698#0_1" length="40"/>
  <laneAreaDetector endPos="-1" file="output_detectors.out.xml" freq="10" id="242" lane="399270698#0_2" length="40"/>
  <laneAreaDetector endPos="-1" file="output_detectors.out.xml" freq="10" id="243" lane="399270698#0_3" length="40"/>
  <laneAreaDetector endPos="-1" file="output_detectors.out.xml" freq="10" id="244" lane="405162731_0" length="40"/>
  <laneAreaDetector endPos="-1" file="output_detectors.out.xml" freq="10" id="245" lane="405162731_1" length="40"/>
  <laneAreaDetector endPos="-1" file="output_detectors.out.xml" freq="10" id="246" lane="405162731_2" length="40"/>
  <laneAreaDetector endPos="-1" file="output_detectors.out.xml" freq="10" id="247" lane="405162731_3" length="40"/>
  <laneAreaDetector endPos="-1" file="output_detectors.out.xml" freq="10" id="248" lane="405164831#0_0" length="40"/>
  <laneAreaDetector endPos="-1" file="output_detectors.out.xml" freq="10" id="249" lane="47805886#0_0" length="40"/>
  <laneAreaDetector endPos="-1" file="output_detectors.out.xml" freq="10" id="250" lane="47805886#0_1" length="40"/>
  <laneAreaDetector endPos="-1" file="output_detectors.out.xml" freq="10" id="251" lane="47805886#3_0" length="40"/>
  <laneAreaDetector endPos="-1" file="output_detectors.out.xml" freq="10" id="252" lane="47805886#3_1" length="40"/>
  <laneAreaDetector endPos="-1" file="output_detectors.out.xml" freq="10" id="253" lane="510562261#0_0" length="40"/>
  <laneAreaDetector endPos="-1" file="output_detectors.out.xml" freq="10" id="254" lane="510562261#0_1" length="40"/>