<tazs>
    <taz id="destination" edges="-161822265 -234659538#0 -234659538#1 -381482564 -382439720 -382439721#1 -398733935 -398733936 -398733939 -398733942 -398735929 -398735933 -398735937#1 -398735939#1 -398740643 -521842795 161688766 161688767#0 161688767#2 161822265 234659538#0 234659538#1 381482564 382439720 382439721#0 398733934 398733936 398733939 398733942 398735929 398735933 398735936 398735937#0 398735939#0 398740643"/>
    <taz id="source" edges="-136751135#4 -161689967#0 -161689967#2 -172996350#0 -172996350#1 -186076540 -237022761#12 -237022761#9 -382459572 -398812541 -398814235 -398814238 -399238813#1 -399238814#1 -402114963 -47805886#7 -579163503#1 136751135#0 161689967#1 172996350#0 172996350#1 186076540 206354180#0 206354180#1 237022761#0 237022761#10 382459572 398812533 398812541 398814235 398814238 398814284#0 399238813#0 399238814#0 405164831#0 47805886#3 510562261#0 579163503#0"/>
</tazs>
