<?xml version="1.0" encoding="UTF-8"?>

<!-- generated on Mon Oct 29 15:14:45 2018 by SUMO netconvert Version 0.30.0
<?xml version="1.0" encoding="UTF-8"?>

<configuration xmlns:xsi="http://www.w3.org/2001/XMLSchema-instance" xsi:noNamespaceSchemaLocation="http://sumo.dlr.de/xsd/netconvertConfiguration.xsd">

    <input>
        <osm-files value="network_input_files/map.osm"/>
    </input>

    <output>
        <output-file value="sumo_files/map.net.xml"/>
        <output.street-names value="true"/>
    </output>

    <projection>
        <proj.utm value="true"/>
    </projection>

    <tls_building>
        <tls.discard-simple value="true"/>
    </tls_building>

    <edge_removal>
        <keep-edges.by-type value="highway.primary,highway.secondary"/>
    </edge_removal>

    <processing>
        <no-internal-links value="true"/>
        <geometry.remove value="true"/>
    </processing>

</configuration>
-->

<net version="0.27" xmlns:xsi="http://www.w3.org/2001/XMLSchema-instance" xsi:noNamespaceSchemaLocation="http://sumo.dlr.de/xsd/net_file.xsd">

    <location netOffset="-384685.39,-3766958.49" convBoundary="0.00,0.00,1540.86,1338.18" origBoundary="-118.251737,34.035944,-118.232659,34.053443" projParameter="+proj=utm +zone=11 +ellps=WGS84 +datum=WGS84 +units=m +no_defs"/>

    <type id="highway.bridleway" priority="1" numLanes="1" speed="2.78" allow="pedestrian" oneway="1" width="2.00"/>
    <type id="highway.bus_guideway" priority="1" numLanes="1" speed="8.33" allow="bus" oneway="1"/>
    <type id="highway.cycleway" priority="1" numLanes="1" speed="5.56" allow="bicycle" oneway="0" width="1.00"/>
    <type id="highway.footway" priority="1" numLanes="1" speed="2.78" allow="pedestrian" oneway="1" width="2.00"/>
    <type id="highway.ford" priority="1" numLanes="1" speed="2.78" allow="army" oneway="0"/>
    <type id="highway.living_street" priority="3" numLanes="1" speed="2.78" disallow="tram rail_urban rail rail_electric ship" oneway="0"/>
    <type id="highway.motorway" priority="13" numLanes="2" speed="44.44" allow="private emergency authority army vip passenger hov taxi bus coach delivery truck trailer motorcycle evehicle custom1 custom2" oneway="1"/>
    <type id="highway.motorway_link" priority="12" numLanes="1" speed="22.22" allow="private emergency authority army vip passenger hov taxi bus coach delivery truck trailer motorcycle evehicle custom1 custom2" oneway="1"/>
    <type id="highway.path" priority="1" numLanes="1" speed="2.78" allow="bicycle pedestrian" oneway="1" width="2.00"/>
    <type id="highway.pedestrian" priority="1" numLanes="1" speed="2.78" allow="pedestrian" oneway="1" width="2.00"/>
    <type id="highway.primary" priority="9" numLanes="2" speed="27.78" disallow="tram rail_urban rail rail_electric ship" oneway="0"/>
    <type id="highway.primary_link" priority="8" numLanes="1" speed="22.22" disallow="tram rail_urban rail rail_electric ship" oneway="0"/>
    <type id="highway.raceway" priority="14" numLanes="2" speed="83.33" allow="vip" oneway="0"/>
    <type id="highway.residential" priority="4" numLanes="1" speed="13.89" disallow="tram rail_urban rail rail_electric ship" oneway="0"/>
    <type id="highway.secondary" priority="7" numLanes="2" speed="27.78" disallow="tram rail_urban rail rail_electric ship" oneway="0"/>
    <type id="highway.secondary_link" priority="6" numLanes="1" speed="22.22" disallow="tram rail_urban rail rail_electric ship" oneway="0"/>
    <type id="highway.service" priority="2" numLanes="1" speed="5.56" allow="delivery bicycle pedestrian" oneway="0"/>
    <type id="highway.services" priority="1" numLanes="1" speed="8.33" disallow="tram rail_urban rail rail_electric ship" oneway="0"/>
    <type id="highway.stairs" priority="1" numLanes="1" speed="1.39" allow="pedestrian" oneway="1" width="2.00"/>
    <type id="highway.step" priority="1" numLanes="1" speed="1.39" allow="pedestrian" oneway="1" width="2.00"/>
    <type id="highway.steps" priority="1" numLanes="1" speed="1.39" allow="pedestrian" oneway="1" width="2.00"/>
    <type id="highway.tertiary" priority="6" numLanes="1" speed="22.22" disallow="tram rail_urban rail rail_electric ship" oneway="0"/>
    <type id="highway.tertiary_link" priority="5" numLanes="1" speed="22.22" disallow="tram rail_urban rail rail_electric ship" oneway="0"/>
    <type id="highway.track" priority="1" numLanes="1" speed="5.56" disallow="tram rail_urban rail rail_electric ship" oneway="0"/>
    <type id="highway.trunk" priority="11" numLanes="2" speed="27.78" disallow="tram rail_urban rail rail_electric bicycle pedestrian ship" oneway="0"/>
    <type id="highway.trunk_link" priority="10" numLanes="1" speed="22.22" disallow="tram rail_urban rail rail_electric bicycle pedestrian ship" oneway="0"/>
    <type id="highway.unclassified" priority="5" numLanes="1" speed="13.89" disallow="tram rail_urban rail rail_electric ship" oneway="0"/>
    <type id="highway.unsurfaced" priority="1" numLanes="1" speed="8.33" disallow="tram rail_urban rail rail_electric ship" oneway="0"/>
    <type id="railway.light_rail" priority="15" numLanes="1" speed="27.78" allow="rail_urban" oneway="1"/>
    <type id="railway.preserved" priority="15" numLanes="1" speed="27.78" allow="rail" oneway="1"/>
    <type id="railway.rail" priority="15" numLanes="1" speed="83.33" allow="rail rail_electric" oneway="1"/>
    <type id="railway.subway" priority="15" numLanes="1" speed="27.78" allow="rail_urban" oneway="1"/>
    <type id="railway.tram" priority="15" numLanes="1" speed="13.89" allow="tram" oneway="1"/>

    <edge id="-136751135#4" from="4015453643" to="69092055" name="South Alameda Street" priority="9" type="highway.primary" shape="1005.84,257.19 1009.07,310.49 1018.97,481.33 1020.78,508.10 1025.66,596.62 1031.59,688.89">
        <lane id="-136751135#4_0" index="0" disallow="tram rail_urban rail rail_electric ship" speed="15.65" length="432.48" shape="1010.87,258.39 1014.01,310.20 1023.91,481.02 1025.72,507.79 1030.60,596.32 1036.08,681.62"/>
        <lane id="-136751135#4_1" index="1" disallow="tram rail_urban rail rail_electric ship" speed="15.65" length="432.48" shape="1007.58,258.59 1010.72,310.40 1020.62,481.23 1022.42,507.99 1027.31,596.52 1032.79,681.83"/>
    </edge>
    <edge id="-161689967#0" from="1788063389" to="122958109" name="Maple Avenue" priority="7" type="highway.secondary" shape="125.79,772.01 132.37,783.26 225.14,900.59 244.98,925.68 250.32,932.42">
        <lane id="-161689967#0_0" index="0" disallow="tram rail_urban rail rail_electric ship" speed="27.78" length="203.20" shape="131.48,778.47 133.73,782.33 226.44,899.57 246.28,924.65 246.60,925.07"/>
    </edge>
    <edge id="-161689967#2" from="122886634" to="1788063389" name="Maple Avenue" priority="7" type="highway.secondary" shape="0.00,607.35 11.38,614.94 107.96,731.30 109.47,733.50 111.69,736.73 113.01,739.62 114.54,743.05 116.07,746.73 121.72,761.42 125.79,772.01">
        <lane id="-161689967#2_0" index="0" disallow="tram rail_urban rail rail_electric ship" speed="27.78" length="209.49" shape="0.92,605.98 12.50,613.70 109.28,730.31 110.83,732.57 113.13,735.92 114.52,738.95 116.05,742.40 117.60,746.12 123.26,760.83 124.04,762.87"/>
    </edge>
    <edge id="-161822265" from="123611452" to="250652263" name="East 2nd Street" priority="7" type="highway.secondary" shape="1038.40,1117.76 1013.34,1118.18 1005.85,1119.36 990.75,1127.02">
        <lane id="-161822265_0" index="0" disallow="tram rail_urban rail rail_electric ship" speed="27.78" length="49.58" shape="1027.02,1119.60 1013.48,1119.83 1006.36,1120.95 993.14,1127.65"/>
    </edge>
    <edge id="-172996350#0" from="1737956697" to="4019774875" name="San Pedro Street" priority="9" type="highway.primary" shape="371.89,581.35 364.27,570.28 352.60,554.87 339.01,537.26 250.61,437.06">
        <lane id="-172996350#0_0" index="0" disallow="tram rail_urban rail rail_electric ship" speed="27.78" length="188.63" shape="363.24,577.51 360.26,573.18 348.67,557.87 335.19,540.42 247.89,441.46"/>
        <lane id="-172996350#0_1" index="1" disallow="tram rail_urban rail rail_electric ship" speed="27.78" length="188.63" shape="365.96,575.64 362.94,571.25 351.29,555.87 337.74,538.31 250.36,439.28"/>
    </edge>
    <edge id="-172996350#1" from="4014811806" to="1737956697" name="San Pedro Street" priority="9" type="highway.primary" shape="485.62,773.83 436.79,684.17 371.89,581.35">
        <lane id="-172996350#1_0" index="0" disallow="tram rail_urban rail rail_electric ship" speed="27.78" length="223.68" shape="480.55,774.88 432.51,686.67 372.26,591.21"/>
        <lane id="-172996350#1_1" index="1" disallow="tram rail_urban rail rail_electric ship" speed="27.78" length="223.68" shape="483.45,773.30 435.36,685.00 375.05,589.44"/>
    </edge>
    <edge id="-186076540" from="4015453644" to="25062067" name="Central Avenue" priority="9" type="highway.primary">
        <lane id="-186076540_0" index="0" disallow="tram rail_urban rail rail_electric ship" speed="27.78" length="68.13" shape="848.87,285.13 845.69,234.06"/>
        <lane id="-186076540_1" index="1" disallow="tram rail_urban rail rail_electric ship" speed="27.78" length="68.13" shape="852.16,284.93 848.98,233.85"/>
        <lane id="-186076540_2" index="2" disallow="tram rail_urban rail rail_electric ship" speed="27.78" length="68.13" shape="855.45,284.72 852.27,233.65"/>
    </edge>
    <edge id="-234659538#0" from="69091912" to="4014854503" name="East 2nd Street" priority="7" type="highway.secondary" shape="921.94,1183.16 834.65,1255.04 792.63,1289.47 730.01,1338.18">
        <lane id="-234659538#0_0" index="0" disallow="tram rail_urban rail rail_electric ship" speed="27.78" length="246.74" shape="914.36,1191.54 835.69,1256.32 793.66,1290.76 731.02,1339.48"/>
    </edge>
    <edge id="-234659538#1" from="250652263" to="69091912" name="East 2nd Street" priority="7" type="highway.secondary">
        <lane id="-234659538#1_0" index="0" disallow="tram rail_urban rail rail_electric ship" speed="27.78" length="88.81" shape="990.36,1129.47 934.73,1174.86"/>
    </edge>
    <edge id="-237022761#12" from="122627100" to="67619127" name="East 7th Street" priority="9" type="highway.primary" shape="166.42,464.79 175.35,456.98 218.82,420.58 228.52,412.38">
        <lane id="-237022761#12_0" index="0" disallow="tram rail_urban rail rail_electric ship" speed="27.78" length="81.26" shape="163.16,461.07 172.13,453.22 215.64,416.79 216.85,415.76"/>
        <lane id="-237022761#12_1" index="1" disallow="tram rail_urban rail rail_electric ship" speed="27.78" length="81.26" shape="165.33,463.55 174.27,455.72 217.76,419.32 218.99,418.28"/>
    </edge>
    <edge id="-237022761#9" from="67619127" to="4015457714" name="East 7th Street" priority="9" type="highway.primary" shape="228.52,412.38 238.29,403.81 305.96,345.55 312.51,339.90 375.29,283.54 444.83,220.41 491.88,179.60 509.92,164.40 554.28,125.34 574.22,108.40 620.05,69.97 633.05,57.98 684.07,17.14 703.75,0.00">
        <lane id="-237022761#9_0" index="0" disallow="tram rail_urban rail rail_electric ship" speed="27.78" length="629.31" shape="233.62,401.32 235.05,400.07 302.73,341.79 309.24,336.18 371.97,279.86 441.54,216.70 488.66,175.84 506.69,160.65 551.04,121.60 571.03,104.61 616.78,66.25 629.82,54.23 680.89,13.34 700.49,-3.73"/>
        <lane id="-237022761#9_1" index="1" disallow="tram rail_urban rail rail_electric ship" speed="27.78" length="629.31" shape="235.80,403.80 237.21,402.56 304.88,344.29 311.42,338.66 374.18,282.31 443.73,219.17 490.81,178.34 508.84,163.15 553.20,124.09 573.16,107.13 618.96,68.73 631.98,56.73 683.01,15.87 702.66,-1.24"/>
    </edge>
    <edge id="-381482564" from="21748255" to="123611452" name="South Alameda Street" priority="9" type="highway.primary">
        <lane id="-381482564_0" index="0" disallow="tram rail_urban rail rail_electric ship" speed="15.65" length="29.23" shape="1042.30,1089.84 1043.04,1109.39"/>
        <lane id="-381482564_1" index="1" disallow="tram rail_urban rail rail_electric ship" speed="15.65" length="29.23" shape="1039.00,1089.96 1039.74,1109.52"/>
    </edge>
    <edge id="-382439720" from="4014796066" to="21748255" name="South Alameda Street" priority="9" type="highway.primary">
        <lane id="-382439720_0" index="0" disallow="tram rail_urban rail rail_electric ship" speed="15.65" length="29.85" shape="1045.96,1060.32 1045.57,1087.24"/>
        <lane id="-382439720_1" index="1" disallow="tram rail_urban rail rail_electric ship" speed="15.65" length="29.85" shape="1042.66,1060.27 1042.27,1087.19"/>
        <lane id="-382439720_2" index="2" disallow="tram rail_urban rail rail_electric ship" speed="15.65" length="29.85" shape="1039.36,1060.22 1038.97,1087.14"/>
    </edge>
    <edge id="-382439721#1" from="122561312" to="4014854502" name="East 2nd Street" priority="7" type="highway.secondary" shape="1540.86,1112.77 1490.17,1112.90 1425.45,1113.06 1386.68,1114.06 1310.31,1115.39 1221.63,1116.11 1131.93,1116.29 1086.70,1117.01">
        <lane id="-382439721#1_0" index="0" disallow="tram rail_urban rail rail_electric ship" speed="27.78" length="454.19" shape="1540.86,1114.42 1490.18,1114.55 1425.48,1114.71 1386.72,1115.71 1310.33,1117.04 1221.64,1117.76 1131.94,1117.94 1088.23,1118.63"/>
    </edge>
    <edge id="-382459572" from="25062067" to="122594731" name="Central Avenue" priority="9" type="highway.primary" shape="852.96,218.12 845.71,138.92 843.43,113.28">
        <lane id="-382459572_0" index="0" disallow="tram rail_urban rail rail_electric ship" speed="27.78" length="105.27" shape="846.86,205.79 840.78,139.37 838.50,113.72"/>
        <lane id="-382459572_1" index="1" disallow="tram rail_urban rail rail_electric ship" speed="27.78" length="105.27" shape="850.15,205.48 844.06,139.07 841.78,113.43"/>
    </edge>
    <edge id="-382460879#1" from="1837231040" to="67619170" name="San Pedro Street" priority="9" type="highway.primary" shape="582.87,975.06 578.66,965.42 540.95,879.22 502.02,804.34 497.88,796.37">
        <lane id="-382460879#1_0" index="0" disallow="tram rail_urban rail rail_electric ship" speed="27.78" length="197.98" shape="574.50,968.26 574.12,967.40 536.48,881.36 497.63,806.62 496.50,804.44"/>
        <lane id="-382460879#1_1" index="1" disallow="tram rail_urban rail rail_electric ship" speed="27.78" length="197.98" shape="577.53,966.94 577.15,966.08 539.46,879.94 500.56,805.10 499.43,802.92"/>
    </edge>
    <edge id="-382496106" from="72017744" to="4015453645" name="Central Avenue" priority="9" type="highway.primary" shape="871.67,517.05 868.90,474.46 865.86,425.62">
        <lane id="-382496106_0" index="0" disallow="tram rail_urban rail rail_electric ship" speed="27.78" length="91.62" shape="866.42,512.69 863.96,474.77 861.01,427.42"/>
        <lane id="-382496106_1" index="1" disallow="tram rail_urban rail rail_electric ship" speed="27.78" length="91.62" shape="869.72,512.47 867.25,474.56 864.31,427.22"/>
    </edge>
    <edge id="-398733935" from="122954789" to="4014796066" name="South Alameda Street" priority="9" type="highway.primary" shape="1039.49,938.31 1038.53,1003.64 1037.73,1058.70">
        <lane id="-398733935_0" index="0" disallow="tram rail_urban rail rail_electric ship" speed="15.65" length="120.40" shape="1044.24,951.95 1043.48,1003.71 1042.70,1057.27"/>
        <lane id="-398733935_1" index="1" disallow="tram rail_urban rail rail_electric ship" speed="15.65" length="120.40" shape="1040.94,951.90 1040.18,1003.66 1039.40,1057.22"/>
    </edge>
    <edge id="-398733936" from="4014796064" to="122954789" name="South Alameda Street" priority="9" type="highway.primary">
        <lane id="-398733936_0" index="0" disallow="tram rail_urban rail rail_electric ship" speed="15.65" length="68.55" shape="1047.73,871.26 1047.74,925.21"/>
        <lane id="-398733936_1" index="1" disallow="tram rail_urban rail rail_electric ship" speed="15.65" length="68.55" shape="1044.43,871.26 1044.44,925.21"/>
        <lane id="-398733936_2" index="2" disallow="tram rail_urban rail rail_electric ship" speed="15.65" length="68.55" shape="1041.13,871.26 1041.14,925.21"/>
    </edge>
    <edge id="-398733939" from="123611452" to="4014796067" name="South Alameda Street" priority="9" type="highway.primary">
        <lane id="-398733939_0" index="0" disallow="tram rail_urban rail rail_electric ship" speed="15.65" length="26.10" shape="1043.34,1125.71 1043.31,1142.36"/>
        <lane id="-398733939_1" index="1" disallow="tram rail_urban rail rail_electric ship" speed="15.65" length="26.10" shape="1040.04,1125.70 1040.01,1142.36"/>
    </edge>
    <edge id="-398733941#1" from="69092055" to="607992160" name="South Alameda Street" priority="9" type="highway.primary" shape="1031.59,688.89 1033.69,732.68 1034.41,747.42">
        <lane id="-398733941#1_0" index="0" disallow="tram rail_urban rail rail_electric ship" speed="15.65" length="58.59" shape="1037.02,698.77 1038.64,732.44 1039.28,745.68"/>
        <lane id="-398733941#1_1" index="1" disallow="tram rail_urban rail rail_electric ship" speed="15.65" length="58.59" shape="1033.72,698.93 1035.34,732.60 1035.98,745.84"/>
    </edge>
    <edge id="-398733942" from="4014796067" to="4014796068" name="South Alameda Street" priority="9" type="highway.primary">
        <lane id="-398733942_0" index="0" disallow="tram rail_urban rail rail_electric ship" speed="15.65" length="103.44" shape="1043.30,1145.36 1043.13,1247.31"/>
        <lane id="-398733942_1" index="1" disallow="tram rail_urban rail rail_electric ship" speed="15.65" length="103.44" shape="1040.00,1145.36 1039.83,1247.30"/>
    </edge>
    <edge id="-398733944" from="607992160" to="4014796064" name="South Alameda Street" priority="9" type="highway.primary" shape="1034.41,747.42 1039.48,837.40 1039.48,869.76">
        <lane id="-398733944_0" index="0" disallow="tram rail_urban rail rail_electric ship" speed="15.65" length="122.49" shape="1039.43,748.63 1044.43,837.26 1044.43,868.26"/>
        <lane id="-398733944_1" index="1" disallow="tram rail_urban rail rail_electric ship" speed="15.65" length="122.49" shape="1036.14,748.82 1041.13,837.35 1041.13,868.26"/>
    </edge>
    <edge id="-398735929" from="4014811810" to="69091912" name="Central Avenue" priority="9" type="highway.primary">
        <lane id="-398735929_0" index="0" disallow="tram rail_urban rail rail_electric ship" speed="27.78" length="36.69" shape="922.13,1220.19 918.33,1193.08"/>
        <lane id="-398735929_1" index="1" disallow="tram rail_urban rail rail_electric ship" speed="27.78" length="36.69" shape="925.40,1219.73 921.60,1192.62"/>
    </edge>
    <edge id="-398735933" from="69091912" to="4014811809" name="Central Avenue" priority="9" type="highway.primary">
        <lane id="-398735933_0" index="0" disallow="tram rail_urban rail rail_electric ship" speed="27.78" length="59.85" shape="915.60,1172.36 909.77,1125.88"/>
        <lane id="-398735933_1" index="1" disallow="tram rail_urban rail rail_electric ship" speed="27.78" length="59.85" shape="918.87,1171.95 913.05,1125.47"/>
    </edge>
    <edge id="-398735937#1" from="4014811809" to="25062070" name="Central Avenue" priority="9" type="highway.primary" shape="914.50,1123.77 901.33,1018.59 899.58,1003.72">
        <lane id="-398735937#1_0" index="0" disallow="tram rail_urban rail rail_electric ship" speed="27.78" length="120.97" shape="909.40,1122.90 896.42,1019.19 895.88,1014.63"/>
        <lane id="-398735937#1_1" index="1" disallow="tram rail_urban rail rail_electric ship" speed="27.78" length="120.97" shape="912.67,1122.49 899.70,1018.79 899.16,1014.25"/>
    </edge>
    <edge id="-398735938#1" from="122594707" to="69092051" name="Central Avenue" priority="9" type="highway.primary" shape="887.58,801.91 885.10,761.25 884.23,747.20">
        <lane id="-398735938#1_0" index="0" disallow="tram rail_urban rail rail_electric ship" speed="27.78" length="54.82" shape="879.26,800.92 876.96,763.35"/>
        <lane id="-398735938#1_1" index="1" disallow="tram rail_urban rail rail_electric ship" speed="27.78" length="54.82" shape="882.55,800.71 880.25,763.14"/>
        <lane id="-398735938#1_2" index="2" disallow="tram rail_urban rail rail_electric ship" speed="27.78" length="54.82" shape="885.85,800.51 883.55,762.94"/>
    </edge>
    <edge id="-398735939#1" from="25062070" to="122594704" name="Central Avenue" priority="9" type="highway.primary" shape="899.58,1003.72 898.93,991.45 896.56,956.43">
        <lane id="-398735939#1_0" index="0" disallow="tram rail_urban rail rail_electric ship" speed="27.78" length="47.38" shape="893.97,991.46 891.72,958.25"/>
        <lane id="-398735939#1_1" index="1" disallow="tram rail_urban rail rail_electric ship" speed="27.78" length="47.38" shape="897.26,991.28 895.01,958.03"/>
    </edge>
    <edge id="-398735940#3" from="69092051" to="72017744" name="Central Avenue" priority="9" type="highway.primary" shape="884.23,747.20 883.55,731.54 879.87,647.66 878.21,620.16 873.26,538.15 873.13,536.43 871.67,517.05">
        <lane id="-398735940#3_0" index="0" disallow="tram rail_urban rail rail_electric ship" speed="27.78" length="230.50" shape="878.69,733.70 878.60,731.76 874.93,647.91 873.27,620.46 868.32,538.45 868.20,536.81 867.37,525.82"/>
        <lane id="-398735940#3_1" index="1" disallow="tram rail_urban rail rail_electric ship" speed="27.78" length="230.50" shape="881.98,733.55 881.90,731.62 878.22,647.74 876.56,620.26 871.62,538.25 871.49,536.56 870.66,525.57"/>
    </edge>
    <edge id="-398735943" from="4014811808" to="122560970" name="San Pedro Street" priority="9" type="highway.primary">
        <lane id="-398735943_0" index="0" disallow="tram rail_urban rail rail_electric ship" speed="27.78" length="45.18" shape="616.88,1113.60 605.72,1072.91"/>
        <lane id="-398735943_1" index="1" disallow="tram rail_urban rail rail_electric ship" speed="27.78" length="45.18" shape="620.06,1112.72 608.90,1072.04"/>
    </edge>
    <edge id="-398735944" from="122560970" to="4014811807" name="San Pedro Street" priority="9" type="highway.primary">
        <lane id="-398735944_0" index="0" disallow="tram rail_urban rail rail_electric ship" speed="27.78" length="30.50" shape="604.95,1069.85 598.72,1042.95"/>
        <lane id="-398735944_1" index="1" disallow="tram rail_urban rail rail_electric ship" speed="27.78" length="30.50" shape="608.16,1069.11 601.94,1042.21"/>
    </edge>
    <edge id="-398735945" from="4014811807" to="1903989348" name="San Pedro Street" priority="9" type="highway.primary">
        <lane id="-398735945_0" index="0" disallow="tram rail_urban rail rail_electric ship" speed="27.78" length="17.45" shape="598.09,1039.85 595.48,1025.01"/>
        <lane id="-398735945_1" index="1" disallow="tram rail_urban rail rail_electric ship" speed="27.78" length="17.45" shape="601.34,1039.28 598.73,1024.44"/>
    </edge>
    <edge id="-398735947#1" from="67619212" to="4014811808" name="San Pedro Street" priority="9" type="highway.primary" shape="629.41,1140.54 626.47,1129.84 622.05,1113.73">
        <lane id="-398735947#1_0" index="0" disallow="tram rail_urban rail rail_electric ship" speed="27.78" length="27.80" shape="621.83,1131.61 621.70,1131.15 617.67,1116.49"/>
        <lane id="-398735947#1_1" index="1" disallow="tram rail_urban rail rail_electric ship" speed="27.78" length="27.80" shape="625.01,1130.73 624.88,1130.28 620.86,1115.62"/>
    </edge>
    <edge id="-398735948#1" from="1903989348" to="1837231040" name="San Pedro Street" priority="9" type="highway.primary" shape="600.20,1023.26 586.54,985.27 582.87,975.06">
        <lane id="-398735948#1_0" index="0" disallow="tram rail_urban rail rail_electric ship" speed="27.78" length="51.22" shape="592.17,1025.32 578.78,988.06 578.41,987.04"/>
        <lane id="-398735948#1_1" index="1" disallow="tram rail_urban rail rail_electric ship" speed="27.78" length="51.22" shape="595.28,1024.20 581.89,986.95 581.52,985.93"/>
        <lane id="-398735948#1_2" index="2" disallow="tram rail_urban rail rail_electric ship" speed="27.78" length="51.22" shape="598.38,1023.09 584.99,985.83 584.63,984.81"/>
    </edge>
    <edge id="-398735949#1" from="67619170" to="4014811806" name="San Pedro Street" priority="9" type="highway.primary" shape="497.88,796.37 492.86,787.14 485.62,773.83">
        <lane id="-398735949#1_0" index="0" disallow="tram rail_urban rail rail_electric ship" speed="27.78" length="25.66" shape="490.17,792.54 488.51,789.50 481.98,777.51"/>
        <lane id="-398735949#1_1" index="1" disallow="tram rail_urban rail rail_electric ship" speed="27.78" length="25.66" shape="493.07,790.97 491.41,787.92 484.88,775.93"/>
    </edge>
    <edge id="-398735952#2" from="67619229" to="67619212" name="San Pedro Street" priority="9" type="highway.primary" shape="688.36,1315.54 681.08,1293.93 673.59,1271.68 644.90,1185.67 633.99,1153.90 629.41,1140.54">
        <lane id="-398735952#2_0" index="0" disallow="tram rail_urban rail rail_electric ship" speed="27.78" length="184.66" shape="683.67,1317.12 676.39,1295.51 668.90,1273.25 640.21,1187.25 629.31,1155.51 627.87,1151.30"/>
        <lane id="-398735952#2_1" index="1" disallow="tram rail_urban rail rail_electric ship" speed="27.78" length="184.66" shape="686.79,1316.07 679.51,1294.45 672.02,1272.20 643.33,1186.20 632.43,1154.44 630.99,1150.23"/>
    </edge>
    <edge id="-398740643" from="4014854502" to="123611452" name="East 2nd Street" priority="7" type="highway.secondary">
        <lane id="-398740643_0" index="0" disallow="tram rail_urban rail rail_electric ship" speed="27.78" length="48.31" shape="1085.28,1121.98 1046.46,1122.58"/>
        <lane id="-398740643_1" index="1" disallow="tram rail_urban rail rail_electric ship" speed="27.78" length="48.31" shape="1085.23,1118.68 1046.40,1119.28"/>
    </edge>
    <edge id="-398812541" from="4015453645" to="4015453644" name="Central Avenue" priority="9" type="highway.primary">
        <lane id="-398812541_0" index="0" disallow="tram rail_urban rail rail_electric ship" speed="27.78" length="139.77" shape="860.83,424.43 852.34,287.92"/>
        <lane id="-398812541_1" index="1" disallow="tram rail_urban rail rail_electric ship" speed="27.78" length="139.77" shape="864.12,424.22 855.64,287.71"/>
    </edge>
    <edge id="-398814235" from="25062067" to="4015468551" name="East 6th Street" priority="9" type="highway.primary">
        <lane id="-398814235_0" index="0" disallow="tram rail_urban rail rail_electric ship" speed="27.78" length="129.92" shape="860.60,206.67 955.06,140.06"/>
        <lane id="-398814235_1" index="1" disallow="tram rail_urban rail rail_electric ship" speed="27.78" length="129.92" shape="862.50,209.37 956.96,142.76"/>
    </edge>
    <edge id="-398814238" from="4015468551" to="25062064" name="East 6th Street" priority="9" type="highway.primary" shape="959.14,143.24 981.47,127.49 995.66,120.62">
        <lane id="-398814238_0" index="0" disallow="tram rail_urban rail rail_electric ship" speed="27.78" length="34.78" shape="955.61,135.64 977.27,120.36 978.88,119.58"/>
        <lane id="-398814238_1" index="1" disallow="tram rail_urban rail rail_electric ship" speed="27.78" length="34.78" shape="957.51,138.33 978.95,123.21 980.32,122.55"/>
        <lane id="-398814238_2" index="2" disallow="tram rail_urban rail rail_electric ship" speed="27.78" length="34.78" shape="959.41,141.03 980.63,126.07 981.76,125.52"/>
    </edge>
    <edge id="-399238813#1" from="67619127" to="4019774874" name="San Pedro Street" priority="9" type="highway.primary" shape="228.52,412.38 220.06,403.39 208.30,389.77">
        <lane id="-399238813#1_0" index="0" disallow="tram rail_urban rail rail_electric ship" speed="27.78" length="30.34" shape="219.15,409.65 216.38,406.70 205.53,394.14"/>
        <lane id="-399238813#1_1" index="1" disallow="tram rail_urban rail rail_electric ship" speed="27.78" length="30.34" shape="221.56,407.39 218.84,404.49 208.03,391.98"/>
    </edge>
    <edge id="-399238814#1" from="4019774875" to="67619127" name="San Pedro Street" priority="9" type="highway.primary" shape="250.61,437.06 236.35,420.90 228.52,412.38">
        <lane id="-399238814#1_0" index="0" disallow="tram rail_urban rail rail_electric ship" speed="27.78" length="33.13" shape="243.43,441.39 230.22,426.42 227.99,424.00"/>
        <lane id="-399238814#1_1" index="1" disallow="tram rail_urban rail rail_electric ship" speed="27.78" length="33.13" shape="245.90,439.21 232.67,424.21 230.42,421.77"/>
        <lane id="-399238814#1_2" index="2" disallow="tram rail_urban rail rail_electric ship" speed="27.78" length="33.13" shape="248.38,437.03 235.12,422.00 232.85,419.53"/>
    </edge>
    <edge id="-402114963" from="25062064" to="4015453643" name="South Alameda Street" priority="9" type="highway.primary" shape="995.66,120.62 1004.06,227.78 1005.84,257.19">
        <lane id="-402114963_0" index="0" disallow="tram rail_urban rail rail_electric ship" speed="15.65" length="133.59" shape="1001.56,132.58 1009.00,227.43 1010.69,255.39"/>
        <lane id="-402114963_1" index="1" disallow="tram rail_urban rail rail_electric ship" speed="15.65" length="133.59" shape="998.27,132.84 1005.71,227.66 1007.40,255.59"/>
    </edge>
    <edge id="-47805886#2" from="3144543758" to="69091937" name="South Los Angeles Street" priority="7" type="highway.secondary" shape="292.01,1137.05 299.61,1143.01 346.21,1179.61 368.80,1203.45 426.54,1274.79">
        <lane id="-47805886#2_0" index="0" disallow="tram rail_urban rail rail_electric ship" speed="27.78" length="191.42" shape="303.31,1139.62 349.55,1175.94 372.53,1200.19 425.53,1265.68"/>
        <lane id="-47805886#2_1" index="1" disallow="tram rail_urban rail rail_electric ship" speed="27.78" length="191.42" shape="301.27,1142.22 347.32,1178.38 370.05,1202.36 422.97,1267.76"/>
    </edge>
    <edge id="-47805886#7" from="69091979" to="3144543758" name="South Los Angeles Street" priority="7" type="highway.secondary" shape="29.19,844.27 36.66,852.47 157.50,998.44 162.58,1004.59 168.09,1011.31 219.05,1073.05 292.01,1137.05">