<?xml version="1.0" encoding="UTF-8"?>

<!-- generated on Mon Oct 29 15:15:20 2018 by SUMO duarouter Version 0.30.0
<?xml version="1.0" encoding="UTF-8"?>

<configuration xmlns:xsi="http://www.w3.org/2001/XMLSchema-instance" xsi:noNamespaceSchemaLocation="http://sumo.dlr.de/xsd/duarouterConfiguration.xsd">

    <input>
        <net-file value="sumo_files/map.net.xml"/>
        <trip-files value="sumo_files/trips.odtrips.xml"/>
    </input>

    <output>
        <output-file value="sumo_files/TAZ_routes.rou.xml"/>
    </output>

</configuration>
-->

<routes xmlns:xsi="http://www.w3.org/2001/XMLSchema-instance" xsi:noNamespaceSchemaLocation="http://sumo.dlr.de/xsd/routes_file.xsd">
    <vehicle id="63" depart="0.79" departLane="free" departSpeed="max" fromTaz="source" toTaz="destination">
        <route edges="-172996350#0 172996350#0 172996350#1 398735949#0 382460880#0 161688464#8 398735938#0 398735936 398735939#0 398735937#0 398735933 234659538#1 161822265"/>
    </vehicle>
    <vehicle id="3193" depart="1.88" departLane="free" departSpeed="max" fromTaz="source" toTaz="destination">
        <route edges="237022761#10 -237022761#12 399238814#0 172996350#0 172996350#1 398735949#0 382460880#0 161688464#8 398735938#0 398735936 398735939#0 398735937#0 -398735937#1"/>
    </vehicle>
    <vehicle id="283" depart="2.83" departLane="free" departSpeed="max" fromTaz="source" toTaz="destination">
        <route edges="382459572 186076540 398812541 398812542 398735940#0 398735938#0 398735936 398735939#0 -398735939#1"/>
    </vehicle>
    <vehicle id="3028" depart="4.33" departLane="free" departSpeed="max" fromTaz="source" toTaz="destination">
        <route edges="172996350#0 172996350#1 398735949#0 382460880#0 161688464#8 398735938#0 398735936 398735939#0 398735937#0 -398735937#1"/>
    </vehicle>
    <vehicle id="519" depart="4.77" departLane="free" departSpeed="max" fromTaz="source" toTaz="destination">
        <route edges="-172996350#1 172996350#1 398735949#0 382460880#0 161688464#8 398735938#0 398735936"/>
    </vehicle>
    <vehicle id="3886" depart="4.80" departLane="free" departSpeed="max" fromTaz="source" toTaz="destination">
        <route edges="398814238 398814235 186076540 398812541 398812542 398735940#0 398735938#0 398735936 398735939#0 398735937#0"/>
    </vehicle>
    <vehicle id="4530" depart="6.04" departLane="free" departSpeed="max" fromTaz="source" toTaz="destination">
        <route edges="398814238 398814235 186076540 398812541 398812542 398735940#0 398735938#0 398735936 398735939#0 398735937#0 398735933 234659538#1 161822265 398740643"/>
    </vehicle>
    <vehicle id="3064" depart="7.36" departLane="free" departSpeed="max" fromTaz="source" toTaz="destination">
        <route edges="579163503#0 399238813#0 399238814#0 172996350#0 172996350#1 398735949#0 382460880#0 161688464#8 398735938#0 398735936 398735939#0 398735937#0 398735933 -398735933"/>
    </vehicle>
    <vehicle id="4140" depart="8.70" departLane="free" departSpeed="max" fromTaz="source" toTaz="destination">
        <route edges="172996350#1 398735949#0 382460880#0 161688464#8 161688464#17 -398733941#1 -398733944 -398733936"/>
    </vehicle>
    <vehicle id="2255" depart="10.87" departLane="free" departSpeed="max" fromTaz="source" toTaz="destination">
        <route edges="-398814238 398814238 398814235 186076540 398812541 398812542 398735940#0 398735938#0 398735936 398735939#0 398735937#0 398735933 234659538#1 161822265 398740643 382439721#0 -382439721#1"/>
    </vehicle>
    <vehicle id="3020" depart="11.00" departLane="free" departSpeed="max" fromTaz="source" toTaz="destination">
        <route edges="-186076540 -382459572 382459572 186076540 398812541 398812542 398735940#0 161688464#17 -398733941#1 -398733944 -398733936"/>
    </vehicle>
    <vehicle id="245" depart="11.12" departLane="free" departSpeed="max" fromTaz="source" toTaz="destination">
        <route edges="405164831#0 206354180#1 172996350#1 398735949#0 382460880#0 161688464#8 398735938#0 398735936 398735939#0 398735937#0 398735933 234659538#1 161822265 -398733939 398733939"/>
    </vehicle>
    <vehicle id="2653" depart="11.33" departLane="free" departSpeed="max" fromTaz="source" toTaz="destination">
        <route edges="206354180#0 206354180#1 172996350#1 398735949#0 382460880#0 161688464#8 398735938#0 398735936 398735939#0 398735937#0 398735933 398735929"/>
    </vehicle>
    <vehicle id="2378" depart="11.57" departLane="free" departSpeed="max" fromTaz="source" toTaz="destination">
        <route edges="398814238 398814235 186076540 398812541 398812542 398735940#0 398735938#0 398735936 398735939#0 398735937#0 398735933 234659538#1 161822265 398740643 382439721#0"/>
    </vehicle>
    <vehicle id="4240" depart="11.71" departLane="free" departSpeed="max" fromTaz="source" toTaz="destination">
        <route edges="579163503#0 399238813#0 399238814#0 172996350#0 172996350#1 398735949#0 382460880#0 161688464#8 398735938#0 398735936 398735939#0 398735937#0"/>
    </vehicle>
    <vehicle id="1581" depart="14.07" departLane="free" departSpeed="max" fromTaz="source" toTaz="destination">
        <route edges="-398812541 398812541 398812542 398735940#0 161688464#17 -398733941#1 -398733944 -398733936"/>
    </vehicle>
    <vehicle id="2551" depart="15.90" departLane="free" departSpeed="max" fromTaz="source" toTaz="destination">
        <route edges="206354180#0 206354180#1 172996350#1 398735949#0 382460880#0 161688464#8 398735938#0 398735936 398735939#0 398735937#0 398735933 234659538#1 -234659538#1"/>
    </vehicle>
    <vehicle id="1351" depart="16.08" departLane="free" departSpeed="max" fromTaz="source" toTaz="destination">
        <route edges="-382459572 382459572 186076540 398812541 398812542 398735940#0 398735938#0 398735936 398735939#0 398735937#0 398735933 234659538#1 -234659538#1"/>
    </vehicle>
    <vehicle id="3876" depart="16.08" departLane="free" departSpeed="max" fromTaz="source" toTaz="destination">
        <route edges="161689967#1 -161689967#2 206354180#1 172996350#1 398735949#0 382460880#0 161688464#8 161688464#17 -398733941#1 -398733944 -398733936 161688767#0"/>
    </vehicle>
    <vehicle id="88" depart="16.72" departLane="free" departSpeed="max" fromTaz="source" toTaz="destination">
        <route edges="398814235 186076540 398812541 398812542 398735940#0 398735938#0 398735936 398735939#0 398735937#0 398735933 234659538#1 161822265 -398733939 398733939 381482564 382439720 398733934"/>
    </vehicle>
    <vehicle id="4616" depart="18.30" departLane="free" departSpeed="max" fromTaz="source" toTaz="destination">
        <route edges="-399238813#1 399238813#0 399238814#0 172996350#0 172996350#1 398735949#0 382460880#0 161688464#8 398735938#0 398735936 398735939#0 398735937#0 398735933 234659538#1 161822265 398740643 382439721#0"/>
    </vehicle>
    <vehicle id="9" depart="18.39" departLane="free" departSpeed="max" fromTaz="source" toTaz="destination">
        <route edges="398814235 186076540 398812541 398812542 398735940#0 398735938#0 398735936 398735939#0 398735937#0 398735933 234659538#1 161822265 398740643 382439721#0 -382439721#1"/>
    </vehicle>
    <vehicle id="3463" depart="18.86" departLane="free" departSpeed="max" fromTaz="source" toTaz="destination">
        <route edges="-398812541 398812541 398812542 398735940#0 398735938#0 398735936 398735939#0 398735937#0 398735933 234659538#1 161822265 -398733939 398733939 381482564 382439720"/>
    </vehicle>
    <vehicle id="4545" depart="18.94" departLane="free" departSpeed="max" fromTaz="source" toTaz="destination">
        <route edges="399238813#0 399238814#0 172996350#0 172996350#1 398735949#0 382460880#0 161688464#8 398735938#0 398735936 -521842795"/>
    </vehicle>
    <vehicle id="749" depart="18.97" departLane="free" departSpeed="max" fromTaz="source" toTaz="destination">
        <route edges="206354180#0 206354180#1 172996350#1 398735949#0 382460880#0 161688464#8 398735938#0 398735936 -521842795"/>
    </vehicle>
    <vehicle id="412" depart="19.61" departLane="free" departSpeed="max" fromTaz="source" toTaz="destination">
        <route edges="161689967#1 -161689967#2 206354180#1 172996350#1 398735949#0 382460880#0 161688464#8 398735938#0 398735936 398735939#0 398735937#0 398735933 -234659538#0"/>
    </vehicle>
    <vehicle id="4912" depart="19.62" departLane="free" departSpeed="max" fromTaz="source" toTaz="destination">
        <route edges="237022761#0 399238814#0 172996350#0 172996350#1 398735949#0 382460880#0 161688464#8 398735938#0 398735936 398735939#0 398735937#0 398735933 234659538#1"/>
    </vehicle>
    <vehicle id="2525" depart="19.73" departLane="free" departSpeed="max" fromTaz="source" toTaz="destination">
        <route edges="398814238 398814235 186076540 398812541 398812542 398735940#0 398735938#0 398735936 398735939#0 398735937#0 -398735937#1"/>
    </vehicle>
    <vehicle id="4638" depart="21.21" departLane="free" departSpeed="max" fromTaz="source" toTaz="destination">
        <route edges="206354180#1 172996350#1 398735949#0 382460880#0 161688464#8 398735938#0 398735936 398735939#0 161688767#2"/>
    </vehicle>
    <vehicle id="1599" depart="21.76" departLane="free" departSpeed="max" fromTaz="source" toTaz="destination">
        <route edges="-399238813#1 399238813#0 399238814#0 172996350#0 172996350#1 398735949#0 382460880#0 161688464#8 398735938#0 398735936 398735939#0 398735937#0 398735933 -398735933"/>
    </vehicle>
    <vehicle id="4652" depart="22.42" departLane="free" departSpeed="max" fromTaz="source" toTaz="destination">
        <route edges="398812541 398812542 398735940#0 398735938#0 398735936 398735939#0 398735937#0"/>
    </vehicle>
    <vehicle id="3045" depart="22.69" departLane="free" departSpeed="max" fromTaz="source" toTaz="destination">
        <route edges="186076540 398812541 398812542 398735940#0 398735938#0 398735936 398735939#0 398735937#0"/>
    </vehicle>
    <vehicle id="1397" depart="22.82" departLane="free" departSpeed="max" fromTaz="source" toTaz="destination">
        <route edges="-382459572 382459572 186076540 398812541 398812542 398735940#0 398735938#0 398735936 398735939#0 398735937#0 398735933 234659538#1 161822265 -398733939 398733939 381482564"/>
    </vehicle>
    <vehicle id="391" depart="23.05" departLane="free" departSpeed="max" fromTaz="source" toTaz="destination">
        <route edges="136751135#0 398812533 398814238 398814235 186076540 398812541 398812542 398735940#0 398735938#0 398735936 398735939#0 398735937#0 398735933 234659538#1 161822265 398740643 382439721#0 -382439721#1"/>
    </vehicle>
    <vehicle id="4289" depart="23.87" departLane="free" departSpeed="max" fromTaz="source" toTaz="destination">
        <route edges="-382459572 382459572 186076540 398812541 398812542 398735940#0 398735938#0 398735936 398735939#0 398735937#0 398735933 234659538#1 161822265 398740643 382439721#0"/>
    </vehicle>
    <vehicle id="1144" depart="23.89" departLane="free" departSpeed="max" fromTaz="source" toTaz="destination">
        <route edges="-172996350#1 172996350#1 398735949#0 382460880#0 161688464#8 398735938#0 398735936 398735939#0 398735937#0 398735933 234659538#1 161822265 -398733939 398733939 381482564 -381482564"/>
    </vehicle>
    <vehicle id="3801" depart="25.71" departLane="free" departSpeed="max" fromTaz="source" toTaz="destination">
        <route edges="-186076540 -382459572 382459572 186076540 398812541 398812542 398735940#0 398735938#0 398735936 -521842795"/>
    </vehicle>
    <vehicle id="3636" depart="25.74" departLane="free" departSpeed="max" fromTaz="source" toTaz="destination">
        <route edges="-402114963 398812533 398814238 398814235 186076540 398812541 398812542 398735940#0 398735938#0 398735936 398735939#0 398735937#0 398735933 234659538#1 161822265 -398733939 -398733942"/>
    </vehicle>
    <vehicle id="1775" depart="25.86" departLane="free" departSpeed="max" fromTaz="source" toTaz="destination">
        <route edges="-382459572 382459572 186076540 398812541 398812542 398735940#0 398735938#0 398735936 398735939#0"/>
    </vehicle>
    <vehicle id="3436" depart="27.26" departLane="free" departSpeed="max" fromTaz="source" toTaz="destination">
        <route edges="399238814#0 172996350#0 172996350#1 398735949#0 382460880#0 161688464#8 398735938#0 398735936 398735939#0 398735937#0 398735933 -234659538#0 234659538#0"/>
    </vehicle>
    <vehicle id="3557" depart="29.89" departLane="free" departSpeed="max" fromTaz="source" toTaz="destination">
        <route edges="-579163503#1 579163503#0 399238813#0 399238814#0 172996350#0 172996350#1 398735949#0 382460880#0 161688464#8 398735938#0 398735936 398735939#0 398735937#0 398735933 234659538#1 161822265 -398733939"/>
    </vehicle>
    <vehicle id="1387" depart="32.14" departLane="free" departSpeed="max" fromTaz="source" toTaz="destination">
        <route edges="510562261#0 398814284#0 186076540 398812541 398812542 398735940#0 398735938#0 398735936 398735939#0 398735937#0 398735933 398735929"/>
    </vehicle>
    <vehicle id="1752" depart="35.00" departLane="free" departSpeed="max" fromTaz="source" toTaz="destination">
        <route edges="-136751135#4 -398733941#1 -398733944 -398733936 -398733935 398733934"/>
    </vehicle>
    <vehicle id="4854" depart="35.81" departLane="free" departSpeed="max" fromTaz="source" toTaz="destination">
        <route edges="206354180#0 206354180#1 172996350#1 398735949#0 382460880#0 161688464#8 398735938#0 398735936 398735939#0 398735937#0"/>
    </vehicle>
    <vehicle id="3674" depart="35.90" departLane="free" departSpeed="max" fromTaz="source" toTaz="destination">
        <route edges="510562261#0 398814284#0 186076540 398812541 398812542 398735940#0 398735938#0 398735936 398735939#0 398735937#0 398735933 234659538#1 161822265 -398733939 -398733942 398733942"/>
    </vehicle>
    <vehicle id="3011" depart="36.22" departLane="free" departSpeed="max" fromTaz="source" toTaz="destination">
        <route edges="-136751135#4 -398733941#1 -398733944 -398733936 -398733935"/>
    </vehicle>
    <vehicle id="1289" depart="36.35" departLane="free" departSpeed="max" fromTaz="source" toTaz="destination">
        <route edges="47805886#3 -47805886#7 161688464#3 161688464#8 398735938#0 398735936 398735939#0 398735937#0 398735933 234659538#1 161822265 398740643"/>
    </vehicle>
    <vehicle id="198" depart="36.86" departLane="free" departSpeed="max" fromTaz="source" toTaz="destination">
        <route edges="398814235 186076540 398812541 398812542 398735940#0 398735938#0 398735936 398735939#0 398735937#0 398735933 234659538#1 161822265 398740643 -398740643"/>
    </vehicle>
    <vehicle id="2369" depart="37.22" departLane="free" departSpeed="max" fromTaz="source" toTaz="destination">
        <route edges="136751135#0 -136751135#4 -398733941#1 -398733944 -398733936 161688767#0"/>
    </vehicle>
    <vehicle id="526" depart="37.70" departLane="free" departSpeed="max" fromTaz="source" toTaz="destination">
        <route edges="405164831#0 206354180#1 172996350#1 398735949#0 382460880#0 161688464#8 161688464#17 -398733941#1 -398733944 -398733936 398733936"/>
    </vehicle>
    <vehicle id="4343" depart="38.76" departLane="free" departSpeed="max" fromTaz="source" toTaz="destination">
        <route edges="-186076540 -382459572 382459572 186076540 398812541 398812542 398735940#0 398735938#0 398735936 398735939#0 398735937#0 398735933 234659538#1 161822265"/>
    </vehicle>
    <vehicle id="142" depart="39.03" departLane="free" departSpeed="max" fromTaz="source" toTaz="destination">
        <route edges="172996350#0 172996350#1 398735949#0 382460880#0 161688464#8 161688464#17 -398733941#1 -398733944 -398733936 -398733935"/>
    </vehicle>
    <vehicle id="4428" depart="42.17" departLane="free" departSpeed="max" fromTaz="source" toTaz="destination">
        <route edges="-237022761#12 399238814#0 172996350#0 172996350#1 398735949#0 382460880#0 161688464#8 161688464#17 -398733941#1 -398733944 -398733936"/>
    </vehicle>
    <vehicle id="3372" depart="42.24" departLane="free" departSpeed="max" fromTaz="source" toTaz="destination">
        <route edges="206354180#0 206354180#1 172996350#1 398735949#0 382460880#0 161688464#8 398735938#0 398735936 398735939#0 398735937#0 -398735937#1"/>
    </vehicle>
    <vehicle id="3626" depart="42.31" departLane="free" departSpeed="max" fromTaz="source" toTaz="destination">
        <route edges="47805886#3 -47805886#7 161688464#3 161688464#8 398735938#0 398735936 398735939#0 398735937#0 398735933 234659538#1 161822265 -398733939 398733939 381482564 382439720 398733934"/>
    </vehicle>
    <vehicle id="3578" depart="42.40" departLane="free" departSpeed="max" fromTaz="source" toTaz="destination">
        <route edges="206354180#1 172996350#1 398735949#0 382460880#0 161688464#8 161688464#17 -398733941#1 -398733944 -398733936 -398733935"/>
    </vehicle>
    <vehicle id="3684" depart="42.53" departLane="free" departSpeed="max" fromTaz="source" toTaz="destination">
        <route edges="206354180#0 206354180#1 172996350#1 398735949#0 382460880#0 161688464#8 398735938#0 398735936 -521842795"/>
    </vehicle>
    <vehicle id="4732" depart="43.31" departLane="free" departSpeed="max" fromTaz="source" toTaz="destination">
        <route edges="510562261#0 398814284#0 186076540 398812541 398812542 398735940#0 398735938#0 398735936 398735939#0 161688767#2"/>
    </vehicle>
    <vehicle id="1416" depart="44.99" departLane="free" departSpeed="max" fromTaz="source" toTaz="destination">
        <route edges="47805886#3 -47805886#7 161688464#3 161688464#8 398735938#0 398735936 398735939#0 398735937#0 398735933 234659538#1 161822265 -161822265"/>
    </vehicle>
    <vehicle id="4704" depart="46.74" departLane="free" departSpeed="max" fromTaz="source" toTaz="destination">
        <route edges="-161689967#0 405164831#0 206354180#1 172996350#1 398735949#0 382460880#0 161688464#8 398735938#0 398735936 398735939#0"/>
    </vehicle>
    <vehicle id="3768" depart="46.80" departLane="free" departSpeed="max" fromTaz="source" toTaz="destination">
        <route edges="206354180#0 206354180#1 172996350#1 398735949#0 382460880#0 161688464#8 398735938#0 398735936 398735939#0 398735937#0"/>
    </vehicle>
    <vehicle id="2858" depart="46.85" departLane="free" departSpeed="max" fromTaz="source" toTaz="destination">
        <route edges="398814235 186076540 398812541 398812542 398735940#0 398735938#0 398735936 398735939#0 398735937#0 -398735937#1"/>
    </vehicle>
    <vehicle id="571" depart="46.90" departLane="free" departSpeed="max" fromTaz="source" toTaz="destination">
        <route edges="382459572 186076540 398812541 398812542 398735940#0 398735938#0 398735936 398735939#0 -398735939#1"/>
    </vehicle>
    <vehicle id="3658" depart="47.47" departLane="free" departSpeed="max" fromTaz="source" toTaz="destination">
        <route edges="237022761#10 -237022761#12 399238814#0 172996350#0 172996350#1 398735949#0 382460880#0 161688464#8 398735938#0 398735936 398735939#0"/>
    </vehicle>
    <vehicle id="772" depart="47.95" departLane="free" departSpeed="max" fromTaz="source" toTaz="destination">
        <route edges="-398814235 398814235 186076540 398812541 398812542 398735940#0 398735938#0 398735936 398735939#0 398735937#0 398735933 234659538#1 161822265 -398733939 398733939 381482564 382439720 398733934"/>
    </vehicle>
    <vehicle id="1244" depart="49.05" departLane="free" departSpeed="max" fromTaz="source" toTaz="destination">
        <route edges="-398812541 398812541 398812542 398735940#0 398735938#0 398735936 398735939#0 398735937#0 398735933 234659538#1 161822265 -398733939"/>
    </vehicle>
    <vehicle id="2387" depart="49.06" departLane="free" departSpeed="max" fromTaz="source" toTaz="destination">
        <route edges="-398814235 398814235 186076540 398812541 398812542 398735940#0 398735938#0 398735936 398735939#0 398735937#0 398735933 398735929 -398735929"/>
    </vehicle>
    <vehicle id="4900" depart="49.06" departLane="free" departSpeed="max" fromTaz="source" toTaz="destination">
        <route edges="398814238 398814235 186076540 398812541 398812542 398735940#0 398735938#0 398735936 -521842795"/>
    </vehicle>
    <vehicle id="2343" depart="49.22" departLane="free" departSpeed="max" fromTaz="source" toTaz="destination">
        <route edges="398814238 398814235 186076540 398812541 398812542 398735940#0 398735938#0 398735936"/>
    </vehicle>
    <vehicle id="4435" depart="49.85" departLane="free" departSpeed="max" fromTaz="source" toTaz="destination">
        <route edges="-172996350#1 172996350#1 398735949#0 382460880#0 161688464#8 398735938#0 398735936 398735939#0 398735937#0 398735933 234659538#1 161822265 -398733939"/>
    </vehicle>
    <vehicle id="2862" depart="49.86" departLane="free" departSpeed="max" fromTaz="source" toTaz="destination">
        <route edges="186076540 398812541 398812542 398735940#0 398735938#0 398735936 398735939#0 398735937#0"/>
    </vehicle>
    <vehicle id="4958" depart="50.43" departLane="free" departSpeed="max" fromTaz="source" toTaz="destination">
        <route edges="237022761#0 399238814#0 172996350#0 172996350#1 398735949#0 382460880#0 161688464#8 398735938#0 398735936 398735939#0 398735937#0 -398735937#1"/>
    </vehicle>
    <vehicle id="4035" depart="50.70" departLane="free" departSpeed="max" fromTaz="source" toTaz="destination">
        <route edges="-237022761#9 237022761#0 399238814#0 172996350#0 172996350#1 398735949#0 382460880#0 161688464#8 398735938#0 398735936 398735939#0 398735937#0 398735933 -398735933"/>
    </vehicle>
    <vehicle id="1446" depart="51.33" departLane="free" departSpeed="max" fromTaz="source" toTaz="destination">
        <route edges="398814235 186076540 398812541 398812542 398735940#0 398735938#0 398735936 398735939#0 398735937#0 398735933 -398735933"/>
    </vehicle>
    <vehicle id="3152" depart="52.62" departLane="free" departSpeed="max" fromTaz="source" toTaz="destination">
        <route edges="186076540 398812541 398812542 398735940#0 398735938#0 398735936 398735939#0 398735937#0 398735933 234659538#1 161822265 -398733939 398733939 381482564 382439720 -382439720"/>
    </vehicle>
    <vehicle id="3570" depart="53.26" departLane="free" departSpeed="max" fromTaz="source" toTaz="destination">
        <route edges="206354180#0 206354180#1 172996350#1 398735949#0 382460880#0 161688464#8 398735938#0 398735936 398735939#0 398735937#0 398735933 234659538#1 161822265 398740643 382439721#0 -382439721#1"/>
    </vehicle>
    <vehicle id="3452" depart="53.56" departLane="free" departSpeed="max" fromTaz="source" toTaz="destination">
        <route edges="-579163503#1 579163503#0 399238813#0 399238814#0 172996350#0 172996350#1 398735949#0 382460880#0 161688464#8 398735938#0 398735936 398735939#0 398735937#0 398735933 234659538#1 -234659538#1"/>
    </vehicle>
    <vehicle id="1677" depart="53.94" departLane="free" departSpeed="max" fromTaz="source" toTaz="destination">
        <route edges="237022761#0 399238814#0 172996350#0 172996350#1 398735949#0 382460880#0 161688464#8 398735938#0 398735936 398735939#0 398735937#0 398735933 234659538#1 161822265 398740643 382439721#0"/>
    </vehicle>
    <vehicle id="543" depart="54.47" departLane="free" departSpeed="max" fromTaz="source" toTaz="destination">
        <route edges="579163503#0 399238813#0 399238814#0 172996350#0 172996350#1 398735949#0 382460880#0 161688464#8 161688464#17 -398733941#1 -398733944 -398733936 161688767#0"/>
    </vehicle>
    <vehicle id="1950" depart="55.12" departLane="free" departSpeed="max" fromTaz="source" toTaz="destination">
        <route edges="136751135#0 398812533 398814238 398814235 186076540 398812541 398812542 398735940#0 398735938#0 398735936 398735939#0 398735937#0 398735933 234659538#1"/>
    </vehicle>
    <vehicle id="1327" depart="55.39" departLane="free" departSpeed="max" fromTaz="source" toTaz="destination">
        <route edges="161689967#1 -161689967#2 206354180#1 172996350#1 398735949#0 382460880#0 161688464#8 398735938#0 398735936 398735939#0 161688767#2"/>
    </vehicle>
    <vehicle id="4942" depart="55.54" departLane="free" departSpeed="max" fromTaz="source" toTaz="destination">
        <route edges="-172996350#1 172996350#1 398735949#0 382460880#0 161688464#8 398735938#0 398735936 398735939#0 398735937#0 -398735937#1"/>
    </vehicle>
    <vehicle id="5" depart="55.65" departLane="free" departSpeed="max" fromTaz="source" toTaz="destination">
        <route edges="-161689967#0 405164831#0 206354180#1 172996350#1 398735949#0 382460880#0 161688464#8 161688464#17 -398733941#1 -398733944 -398733936 161688767#0"/>
    </vehicle>
    <vehicle id="2792" depart="55.81" departLane="free" departSpeed="max" fromTaz="source" toTaz="destination">
        <route edges="-161689967#0 405164831#0 206354180#1 172996350#1 398735949#0 382460880#0 161688464#8 161688464#17 -398733941#1 -398733944 -398733936"/>
    </vehicle>
    <vehicle id="3394" depart="56.04" departLane="free" departSpeed="max" fromTaz="source" toTaz="destination">
        <route edges="-398814238 398814238 398814235 186076540 398812541 398812542 398735940#0 398735938#0 398735936 398735939#0 398735937#0 398735933 -234659538#0 234659538#0"/>
    </vehicle>
    <vehicle id="1872" depart="56.27" departLane="free" departSpeed="max" fromTaz="source" toTaz="destination">
        <route edges="-382459572 382459572 186076540 398812541 398812542 398735940#0 398735938#0 398735936 398735939#0 398735937#0 398735933 234659538#1 161822265 -398733939 398733939 381482564"/>
    </vehicle>
    <vehicle id="2733" depart="58.71" departLane="free" departSpeed="max" fromTaz="source" toTaz="destination">
        <route edges="-161689967#2 206354180#1 172996350#1 398735949#0 382460880#0 161688464#8 398735938#0 398735936 398735939#0 398735937#0 398735933 -398735933"/>
    </vehicle>
    <vehicle id="3348" depart="58.83" departLane="free" departSpeed="max" fromTaz="source" toTaz="destination">
        <route edges="-399238814#1 399238814#0 172996350#0 172996350#1 398735949#0 382460880#0 161688464#8 398735938#0 398735936 398735939#0 398735937#0 398735933 234659538#1 161822265 -398733939"/>
    </vehicle>
    <vehicle id="3675" depart="59.01" departLane="free" departSpeed="max" fromTaz="source" toTaz="destination">
        <route edges="-382459572 382459572 186076540 398812541 398812542 398735940#0 398735938#0 398735936 398735939#0 398735937#0 398735933 398735929"/>
    </vehicle>
    <vehicle id="1051" depart="59.07" departLane="free" departSpeed="max" fromTaz="source" toTaz="destination">
        <route edges="382459572 186076540 398812541 398812542 398735940#0 398735938#0 398735936 398735939#0 398735937#0 398735933 234659538#1 161822265 -398733939 398733939 381482564"/>
    </vehicle>
    <vehicle id="1430" depart="59.85" departLane="free" departSpeed="max" fromTaz="source" toTaz="destination">
        <route edges="-398812541 398812541 398812542 398735940#0 398735938#0 398735936 398735939#0 398735937#0 398735933 234659538#1"/>
    </vehicle>
    <vehicle id="3598" depart="60.66" departLane="free" departSpeed="max" fromTaz="source" toTaz="destination">
        <route edges="398812541 398812542 398735940#0 398735938#0 398735936 398735939#0 398735937#0 398735933 234659538#1 161822265 -398733939 398733939 381482564 382439720 398733934"/>
    </vehicle>
    <vehicle id="1154" depart="63.18" departLane="free" departSpeed="max" fromTaz="source" toTaz="destination">
        <route edges="161689967#1 -161689967#2 206354180#1 172996350#1 398735949#0 382460880#0 161688464#8 161688464#17 -398733941#1 -398733944 -398733936 161688767#0"/>
    </vehicle>
    <vehicle id="2184" depart="64.13" departLane="free" departSpeed="max" fromTaz="source" toTaz="destination">
        <route edges="-136751135#4 -398733941#1 -398733944 -398733936 161688767#0 398735937#0 398735933 398735929 -398735929"/>
    </vehicle>
    <vehicle id="1871" depart="65.23" departLane="free" departSpeed="max" fromTaz="source" toTaz="destination">
        <route edges="398814238 398814235 186076540 398812541 398812542 398735940#0 398735938#0 398735936 398735939#0 398735937#0 398735933 234659538#1 161822265 -398733939 398733939 381482564"/>
    </vehicle>
    <vehicle id="1557" depart="66.73" departLane="free" departSpeed="max" fromTaz="source" toTaz="destination">
        <route edges="-172996350#1 172996350#1 398735949#0 382460880#0 161688464#8 398735938#0 398735936 398735939#0 398735937#0 398735933 234659538#1 161822265 -398733939"/>
    </vehicle>
    <vehicle id="2409" depart="66.85" departLane="free" departSpeed="max" fromTaz="source" toTaz="destination">
        <route edges="-237022761#9 237022761#0 399238814#0 172996350#0 172996350#1 398735949#0 382460880#0 161688464#8 398735938#0 398735936 398735939#0 398735937#0 398735933 234659538#1 161822265 -398733939 -398733942 398733942"/>
    </vehicle>
    <vehicle id="3953" depart="67.39" departLane="free" departSpeed="max" fromTaz="source" toTaz="destination">
        <route edges="399238814#0 172996350#0 172996350#1 398735949#0 382460880#0 161688464#8 398735938#0 398735936 398735939#0 398735937#0 398735933 398735929"/>
    </vehicle>
    <vehicle id="4002" depart="70.47" departLane="free" departSpeed="max" fromTaz="source" toTaz="destination">
        <route edges="-237022761#9 237022761#0 399238814#0 172996350#0 172996350#1 398735949#0 382460880#0 161688464#8 398735938#0 398735936 398735939#0 398735937#0 398735933 234659538#1 161822265 -398733939 398733939 381482564 -381482564"/>
    </vehicle>
    <vehicle id="1829" depart="70.69" departLane="free" departSpeed="max" fromTaz="source" toTaz="destination">
        <route edges="398814235 186076540 398812541 398812542 398735940#0 398735938#0 398735936 398735939#0 398735937#0 398735933 -398735933"/>
    </vehicle>
    <vehicle id="597" depart="70.72" departLane="free" departSpeed="max" fromTaz="source" toTaz="destination">